data_C1188H972O108_2018-02-15_12:20:48
#******************************************
#
# CIF file created by Zeo++
# Zeo++ is an open source package to
# analyze microporous materials
#
#*******************************************

_cell_length_a		30.7545   
_cell_length_b		30.7543   
_cell_length_c		37.491   
_cell_angle_alpha		90.1908   
_cell_angle_beta		89.6183   
_cell_angle_gamma		120.001   

_symmetry_space_group_name_H-M		'P1'
_symmetry_Int_Tables_number		1
_symmetry_cell_setting		Triclinic

loop_
_symmetry_equiv_pos_as_xyz
'+x,+y,+z'

loop_
_atom_site_label
_atom_site_type_symbol
_atom_site_fract_x
_atom_site_fract_y
_atom_site_fract_z
1	C	0.004714	0.004602	0.455484
2	H	0.017194	0.315896	0.441398
3	C	0.012379	0.298414	0.02316
4	C	8.7e-05	0.00331	0.040858
5	H	0.017316	0.026897	0.274482
6	H	0.019691	0.085407	0.316923
7	H	0.014691	0.310665	0.38796
8	H	0.016893	0.255178	0.34521
9	C	0.020144	0.044823	0.139369
10	C	0.009085	0.994332	0.121835
11	C	0.016852	0.07919	0.10997
12	C	0.01193	0.262217	0.05238
13	C	0.004714	0.004602	0.955482
14	H	0.017194	0.315895	0.941396
15	C	0.012379	0.298414	0.523158
16	C	8.7e-05	0.00331	0.540859
17	H	0.017316	0.026897	0.774483
18	H	0.019691	0.085407	0.81692
19	H	0.014691	0.310665	0.88796
20	H	0.016893	0.255178	0.84521
21	C	0.020144	0.044823	0.639367
22	C	0.009086	0.994331	0.621835
23	C	0.016852	0.07919	0.60997
24	C	0.01193	0.262217	0.552379
25	C	0.004642	0.337576	0.455444
26	H	0.017215	0.649149	0.441329
27	C	0.012385	0.631721	0.023078
28	C	0.000273	0.336993	0.040821
29	H	0.014762	0.360653	0.2746
30	H	0.01707	0.418859	0.317288
31	H	0.014661	0.643979	0.387899
32	H	0.016854	0.588486	0.345157
33	C	0.017152	0.377438	0.139428
34	C	0.00644	0.327043	0.121963
35	C	0.009322	0.33129	0.207424
36	H	0.02188	0.365823	0.221267
37	C	0.014442	0.411921	0.109991
38	C	0.01187	0.595541	0.052326
39	C	0.004642	0.337575	0.955442
40	H	0.017216	0.649152	0.941329
41	C	0.012384	0.63172	0.523078
42	C	0.000273	0.336993	0.540819
43	H	0.014762	0.360653	0.7746
44	H	0.017072	0.418862	0.817288
45	H	0.014661	0.643979	0.887899
46	H	0.016855	0.588489	0.845154
47	C	0.017151	0.377437	0.639426
48	C	0.00644	0.327043	0.621963
49	C	0.009322	0.331289	0.707422
50	H	0.02188	0.365823	0.721266
51	C	0.014441	0.41192	0.609992
52	C	0.01187	0.595541	0.552326
53	C	0.004664	0.670844	0.455362
54	H	0.017228	0.983	0.441369
55	C	0.012281	0.964889	0.023097
56	C	0.000285	0.670296	0.040735
57	H	0.01475	0.693984	0.274552
58	H	0.017107	0.752222	0.317248
59	H	0.016145	0.976982	0.388024
60	H	0.018214	0.921248	0.345568
61	C	0.017155	0.710767	0.13936
62	C	0.006412	0.660372	0.121907
63	C	0.009321	0.664664	0.207382
64	H	0.021895	0.699207	0.221219
65	C	0.014456	0.745182	0.109864
66	C	0.011896	0.928649	0.052239
67	C	0.004666	0.670847	0.955359
68	H	0.017229	0.982999	0.941369
69	C	0.012281	0.964888	0.523097
70	C	0.000285	0.670295	0.540733
71	H	0.01475	0.693983	0.774552
72	H	0.017108	0.752221	0.817248
73	H	0.016145	0.976981	0.888024
74	H	0.018211	0.921247	0.845565
75	C	0.017157	0.71077	0.639359
76	C	0.006412	0.660372	0.621907
77	C	0.009321	0.664663	0.707382
78	H	0.021894	0.699206	0.721218
79	C	0.014456	0.745181	0.609863
80	C	0.011896	0.928648	0.552238
81	H	0.001266	0.299404	0.224098
82	C	0.010897	0.127934	0.048341
83	H	0.00963	0.143919	0.024878
84	C	0.015001	0.212874	0.114261
85	H	0.017073	0.197536	0.137811
86	H	0.001266	0.299404	0.724096
87	C	0.010897	0.127934	0.548341
88	H	0.00963	0.14392	0.524879
89	C	0.015001	0.212874	0.614259
90	H	0.017073	0.197536	0.637809
91	H	0.001254	0.63278	0.224059
92	C	0.010705	0.461257	0.048062
93	H	0.010222	0.477484	0.024515
94	C	0.014841	0.546228	0.114221
95	H	0.016776	0.53086	0.137784
96	H	0.001253	0.632779	0.724059
97	C	0.010707	0.46126	0.548061
98	H	0.010221	0.477484	0.524516
99	C	0.01484	0.546227	0.614219
100	H	0.016775	0.530859	0.637783
101	H	0.003632	0.966304	0.223999
102	C	0.010694	0.794424	0.047852
103	H	0.010153	0.810622	0.024304
104	C	0.01522	0.879204	0.11399
105	H	0.017087	0.863667	0.13749
106	H	0.003632	0.966303	0.723997
107	C	0.010691	0.794424	0.547853
108	H	0.010153	0.810621	0.524302
109	C	0.015222	0.879207	0.61399
110	H	0.017087	0.863666	0.637489
111	C	0.01207	0.998309	0.207362
112	C	0.01207	0.998309	0.707361
113	H	0.024997	0.032951	0.221243
114	H	0.024997	0.032951	0.721242
115	H	0.031965	0.026992	0.057435
116	C	0.037073	0.072298	0.998535
117	H	0.030233	0.096969	0.481329
118	C	0.032302	0.315626	0.306059
119	C	0.033818	0.04017	0.356456
120	H	0.041068	0.001803	0.104935
121	H	0.034207	0.263192	0.182303
122	C	0.036655	0.158592	0.078492
123	C	0.036537	0.205529	0.082482
124	H	0.031965	0.026992	0.557434
125	C	0.037073	0.072298	0.498536
126	H	0.030233	0.096969	0.981326
127	C	0.032302	0.315626	0.806059
128	C	0.033818	0.04017	0.856456
129	H	0.041068	0.001803	0.604934
130	H	0.034207	0.263192	0.682301
131	C	0.036655	0.158592	0.578493
132	C	0.036537	0.205529	0.582483
133	H	0.032121	0.360894	0.057399
134	C	0.036953	0.405624	0.998247
135	H	0.030044	0.43016	0.480944
136	C	0.032277	0.648943	0.306008
137	C	0.03194	0.373773	0.356517
138	H	0.038565	0.334851	0.10518
139	H	0.034143	0.596514	0.182271
140	C	0.035997	0.491632	0.078421
141	C	0.036292	0.538756	0.082443
142	H	0.032121	0.360894	0.557399
143	C	0.036952	0.405624	0.498248
144	H	0.030044	0.430159	0.980945
145	C	0.032277	0.648942	0.806008
146	C	0.03194	0.373773	0.856517
147	H	0.038565	0.334851	0.60518
148	H	0.034145	0.596517	0.682269
149	C	0.035997	0.491631	0.578421
150	C	0.036291	0.538755	0.582443
151	H	0.032136	0.694206	0.057312
152	C	0.036967	0.738911	0.998136
153	H	0.030064	0.76344	0.480822
154	C	0.034371	0.981724	0.306248
155	C	0.031958	0.70711	0.356461
156	H	0.038529	0.66816	0.105121
157	H	0.035602	0.929343	0.181987
158	C	0.036326	0.824822	0.078095
159	C	0.036541	0.871867	0.082129
160	H	0.032137	0.694209	0.557311
161	C	0.036966	0.738911	0.498136
162	H	0.030064	0.76344	0.980822
163	C	0.034373	0.981727	0.806248
164	C	0.031958	0.707109	0.856461
165	H	0.03853	0.668163	0.605121
166	H	0.035601	0.929346	0.681986
167	C	0.036326	0.824821	0.578095
168	C	0.036544	0.87187	0.582128
169	C	0.053606	0.040289	0.475724
170	C	0.041596	0.294681	0.164831
171	C	0.044521	0.132838	0.107593
172	C	0.040368	0.23694	0.052851
173	H	0.051059	0.228511	0.50375
174	C	0.053606	0.040289	0.975725
175	C	0.041596	0.294681	0.66483
176	C	0.044521	0.132838	0.607594
177	C	0.040368	0.23694	0.552851
178	H	0.051059	0.228511	0.003751
179	C	0.053539	0.373535	0.475556
180	C	0.041548	0.628004	0.164792
181	C	0.042938	0.465514	0.107662
182	C	0.040277	0.570239	0.052826
183	H	0.051264	0.562098	0.503726
184	C	0.053539	0.373535	0.975556
185	C	0.041547	0.628003	0.664793
186	C	0.042937	0.465514	0.60766
187	C	0.040276	0.570238	0.552825
188	H	0.051264	0.562099	0.003727
189	C	0.053578	0.706851	0.475458
190	C	0.043437	0.961047	0.164601
191	C	0.04326	0.798731	0.107358
192	C	0.040344	0.903373	0.052574
193	H	0.051175	0.895269	0.503452
194	C	0.053578	0.70685	0.975458
195	C	0.043434	0.961047	0.6646
196	C	0.043261	0.79873	0.607356
197	C	0.040345	0.903372	0.552574
198	H	0.051172	0.895266	0.003451
199	C	0.061637	0.002303	0.000456
200	H	0.072849	0.313764	0.483764
201	H	0.068584	0.096406	0.01593
202	C	0.066493	0.026961	0.331633
203	C	0.060757	0.010057	0.187112
204	H	0.073152	0.301521	0.147418
205	C	0.069452	0.056297	0.161846
206	H	0.080994	0.089707	0.178237
207	O	0.078592	0.16072	0.13309
208	O	0.071629	0.241907	0.025289
209	H	0.060499	0.154267	0.155922
210	C	0.069873	0.075814	0.38572
211	C	0.069767	0.318171	0.27663
212	C	0.061637	0.002303	0.500456
213	H	0.072849	0.313764	0.983764
214	H	0.068584	0.096406	0.51593
215	C	0.066493	0.026961	0.831633
216	C	0.060757	0.010057	0.687113
217	H	0.073152	0.301521	0.647417
218	C	0.069452	0.056297	0.661845
219	H	0.080995	0.089707	0.678236
220	O	0.078592	0.16072	0.633088
221	O	0.071629	0.241907	0.525289
222	H	0.060499	0.154267	0.655921
223	C	0.069873	0.075814	0.885717
224	C	0.069767	0.318171	0.77663
225	C	0.061698	0.335757	0.000447
226	H	0.072896	0.647092	0.4837
227	H	0.068457	0.429879	0.0156
228	C	0.064498	0.360811	0.331412
229	C	0.058239	0.343637	0.18723
230	H	0.073095	0.634818	0.14738
231	C	0.066489	0.389599	0.161989
232	H	0.077528	0.422873	0.178419
233	O	0.076974	0.49304	0.133276
234	O	0.071686	0.575285	0.025347
235	H	0.058686	0.487055	0.155982
236	C	0.068498	0.409262	0.385712
237	C	0.069743	0.651485	0.276584
238	C	0.061698	0.335757	0.500446
239	H	0.072896	0.647091	0.9837
240	H	0.068457	0.429879	0.515599
241	C	0.064498	0.360811	0.831412
242	C	0.058239	0.343637	0.68723
243	H	0.073095	0.634818	0.64738
244	C	0.066489	0.389599	0.661989
245	H	0.077527	0.422872	0.678417
246	O	0.076973	0.493039	0.633275
247	O	0.071688	0.575288	0.525348
248	H	0.058686	0.487054	0.655982
249	C	0.068499	0.409265	0.885712
250	C	0.069742	0.651484	0.776584
251	C	0.061724	0.669076	0.000371
252	H	0.072747	0.980368	0.48367
253	H	0.068472	0.763171	0.015487
254	C	0.06449	0.694119	0.331356
255	C	0.058224	0.676968	0.187187
256	H	0.0748	0.967472	0.147124
257	C	0.066488	0.722917	0.161929
258	H	0.077544	0.756198	0.178355
259	O	0.077399	0.826271	0.132919
260	O	0.07168	0.908505	0.025029
261	H	0.059215	0.820369	0.155666
262	C	0.068594	0.742644	0.38561
263	C	0.071944	0.983943	0.27692
264	C	0.061725	0.669079	0.500371
265	H	0.072744	0.980367	0.983671
266	H	0.068471	0.76317	0.515487
267	C	0.06449	0.694118	0.831356
268	C	0.058224	0.676967	0.687185
269	H	0.074797	0.967471	0.647124
270	C	0.066487	0.722916	0.661928
271	H	0.077543	0.756197	0.678356
272	O	0.077399	0.82627	0.632918
273	O	0.071682	0.908508	0.525028
274	H	0.059215	0.820368	0.655665
275	C	0.068594	0.742643	0.88561
276	C	0.071941	0.983942	0.776921
277	C	0.993	0.326588	0.288614
278	C	0.997239	0.052509	0.333629
279	C	0.992971	0.323257	0.37409
280	C	0.994878	0.266239	0.328737
281	C	0.974516	0.059192	0.086196
282	H	0.944427	0.024535	0.09037
283	C	0.090251	0.057092	0.411937
284	H	0.086402	0.022428	0.409544
285	C	0.091826	0.359501	0.251865
286	H	0.08734	0.389746	0.255474
287	C	0.992997	0.326588	0.788614
288	C	0.99724	0.052509	0.833629
289	C	0.992972	0.323257	0.87409
290	C	0.994875	0.266239	0.828737
291	C	0.974517	0.059192	0.586196
292	H	0.944427	0.024535	0.59037
293	C	0.090251	0.057092	0.911934
294	H	0.086402	0.022428	0.909545
295	C	0.091826	0.359501	0.751863
296	H	0.08734	0.389745	0.755475
297	C	0.992985	0.659925	0.288569
298	C	0.994869	0.385811	0.333919
299	C	0.992958	0.656584	0.374031
300	C	0.994846	0.599555	0.328681
301	C	0.972808	0.392164	0.085643
302	H	0.942665	0.357433	0.089461
303	C	0.089315	0.39038	0.411492
304	H	0.085424	0.355727	0.408846
305	C	0.09181	0.69282	0.251824
306	H	0.087329	0.723067	0.255435
307	C	0.992985	0.659925	0.788569
308	C	0.994869	0.38581	0.833919
309	C	0.992958	0.656583	0.874031
310	C	0.994846	0.599554	0.828681
311	C	0.972808	0.392163	0.585641
312	H	0.942665	0.357433	0.589461
313	C	0.089315	0.390379	0.911492
314	H	0.085424	0.355727	0.908846
315	C	0.09181	0.692819	0.751823
316	H	0.087329	0.723066	0.755435
317	C	0.995316	0.992909	0.288555
318	C	0.994896	0.719166	0.333877
319	C	0.994618	0.989747	0.374028
320	C	0.996461	0.932471	0.328937
321	C	0.972784	0.725444	0.08554
322	H	0.942604	0.690751	0.089403
323	C	0.089335	0.723713	0.411406
324	H	0.085378	0.689031	0.408787
325	C	0.09405	0.02506	0.251972
326	H	0.08992	0.055516	0.255579
327	C	0.995313	0.992908	0.788553
328	C	0.994896	0.719165	0.833874
329	C	0.994618	0.989747	0.874029
330	C	0.996458	0.93247	0.828937
331	C	0.972786	0.725447	0.58554
332	H	0.942605	0.690751	0.589402
333	C	0.089335	0.723712	0.911404
334	H	0.085377	0.68903	0.908787
335	C	0.09405	0.02506	0.751973
336	H	0.08992	0.055516	0.755579
337	C	0.287486	0.298326	0.473108
338	C	0.300293	0.265899	0.998312
339	H	0.330293	0.028813	0.438851
340	H	0.093062	0.024082	0.018448
341	H	0.309782	0.240999	0.483588
342	H	0.266126	0.241483	0.013477
343	C	0.321493	0.040189	0.0211
344	H	0.299	0.315098	0.054767
345	C	0.275519	0.002576	0.995908
346	H	0.242135	0.313776	0.012343
347	H	0.266216	0.02472	0.478016
348	C	0.29293	0.00654	0.308737
349	H	0.302246	0.294547	0.271924
350	H	0.308627	0.062459	0.351471
351	H	0.091734	0.061334	0.317094
352	H	0.090595	0.017069	0.346776
353	C	0.29017	0.274375	0.353949
354	H	0.303978	0.997985	0.390622
355	C	0.258151	0.291092	0.331537
356	H	0.233758	0.298322	0.349011
357	H	0.233717	0.259613	0.314173
358	H	0.306387	0.23471	0.310756
359	C	0.308604	0.032514	0.165184
360	C	0.3264	0.278143	0.142347
361	H	0.30584	0.314607	0.107991
362	C	0.280268	0.27007	0.167349
363	C	0.292171	0.319339	0.189955
364	H	0.247327	0.259076	0.150747
365	H	0.270482	0.238567	0.185374
366	H	0.274057	0.023509	0.151188
367	H	0.319066	0.066818	0.180311
368	H	0.3346	0.299404	0.224098
369	H	0.100878	0.065412	0.143713
370	C	0.344231	0.127934	0.048341
371	C	0.316585	0.074673	0.049963
372	H	0.342963	0.143919	0.024878
373	C	0.305865	0.241112	0.078721
374	C	0.319744	0.237615	0.114196
375	C	0.348335	0.212874	0.114261
376	H	0.275315	0.245359	0.076818
377	H	0.350406	0.197536	0.137811
378	C	0.17271	0.203581	0.412572
379	C	0.202659	0.209391	0.381609
380	C	0.25592	0.234467	0.382508
381	C	0.272199	0.240067	0.418408
382	C	0.252702	0.261346	0.443743
383	C	0.199081	0.23631	0.441964
384	H	0.186152	0.193019	0.358054
385	H	0.306738	0.243977	0.421742
386	C	0.125549	0.156746	0.416656
387	C	0.094071	0.129429	0.387056
388	C	0.094128	0.074351	0.44752
389	C	0.118794	0.127629	0.448053
390	H	0.134114	0.144807	0.471675
391	O	0.171794	0.242496	0.468221
392	O	0.088378	0.155957	0.360249
393	H	0.178226	0.230215	0.490622
394	H	0.10185	0.14955	0.338264
395	C	0.127969	0.296157	0.245295
396	C	0.124214	0.985648	0.214762
397	C	0.099773	0.014512	0.215842
398	C	0.094677	0.289485	0.274557
399	H	0.140513	0.985208	0.191111
400	C	0.174852	0.296088	0.249445
401	C	0.202572	0.29171	0.219924
402	C	0.256277	0.320101	0.2192
403	C	0.274511	0.35978	0.245183
404	C	0.259696	0.013762	0.280681
405	C	0.2064	0.985614	0.280993
406	H	0.309347	0.390275	0.242996
407	H	0.188901	0.983932	0.304557
408	O	0.087935	0.25567	0.300465
409	O	0.176434	0.259999	0.192738
410	H	0.100173	0.274167	0.322999
411	H	0.183719	0.280209	0.170944
412	C	0.287486	0.298326	0.973108
413	C	0.300293	0.265899	0.498312
414	H	0.330293	0.028813	0.938851
415	H	0.093062	0.024082	0.518448
416	H	0.309782	0.240999	0.983588
417	H	0.266126	0.241483	0.513476
418	C	0.321493	0.040189	0.521099
419	H	0.299	0.315098	0.554766
420	C	0.275519	0.002576	0.495908
421	H	0.242135	0.313776	0.512342
422	H	0.266216	0.02472	0.978016
423	C	0.29293	0.00654	0.808734
424	H	0.302246	0.294547	0.771925
425	H	0.308627	0.062459	0.851471
426	H	0.091734	0.061334	0.817094
427	H	0.090595	0.017069	0.846776
428	C	0.29017	0.274375	0.853946
429	H	0.303977	0.997984	0.890622
430	C	0.258151	0.291092	0.831537
431	H	0.233758	0.298322	0.849011
432	H	0.233718	0.259613	0.81417
433	H	0.306387	0.23471	0.810753
434	C	0.308604	0.032514	0.665185
435	C	0.3264	0.278143	0.642347
436	H	0.30584	0.314607	0.607991
437	C	0.280268	0.27007	0.667348
438	C	0.292171	0.319339	0.689954
439	H	0.247327	0.259076	0.650746
440	H	0.270482	0.238567	0.685374
441	H	0.274057	0.023509	0.651189
442	H	0.319066	0.066818	0.680311
443	H	0.3346	0.299404	0.724096
444	H	0.100878	0.065412	0.643712
445	C	0.344231	0.127934	0.548341
446	C	0.316585	0.074673	0.549962
447	H	0.342963	0.14392	0.524879
448	C	0.305865	0.241112	0.578722
449	C	0.319744	0.237615	0.614195
450	C	0.348335	0.212874	0.614259
451	H	0.275315	0.245358	0.576818
452	H	0.350406	0.197536	0.637809
453	C	0.17271	0.203581	0.912569
454	C	0.202659	0.20939	0.881609
455	C	0.25592	0.234467	0.882508
456	C	0.272199	0.240067	0.918408
457	C	0.252702	0.261346	0.943743
458	C	0.199081	0.23631	0.941964
459	H	0.186152	0.193019	0.858054
460	H	0.306738	0.243977	0.921742
461	C	0.125549	0.156746	0.916656
462	C	0.094071	0.129429	0.887053
463	C	0.094128	0.074351	0.94752
464	C	0.118794	0.127629	0.948053
465	H	0.134114	0.144807	0.971673
466	O	0.171794	0.242496	0.968221
467	O	0.088377	0.155957	0.860249
468	H	0.178226	0.230215	0.990619
469	H	0.10185	0.14955	0.838265
470	C	0.127969	0.296157	0.745294
471	C	0.124217	0.985651	0.714763
472	C	0.099773	0.014513	0.715841
473	C	0.094677	0.289485	0.774555
474	H	0.140513	0.985208	0.691111
475	C	0.174852	0.296088	0.749444
476	C	0.202572	0.29171	0.719924
477	C	0.256277	0.320101	0.719199
478	C	0.274511	0.35978	0.745184
479	C	0.259696	0.013762	0.780681
480	C	0.2064	0.985613	0.780994
481	H	0.309347	0.390274	0.742994
482	H	0.188901	0.983931	0.804557
483	O	0.087935	0.255669	0.800463
484	O	0.176434	0.259999	0.692736
485	H	0.100173	0.274167	0.822999
486	H	0.183719	0.280209	0.670943
487	C	0.287485	0.631585	0.473012
488	C	0.300309	0.599183	0.998223
489	H	0.330151	0.361686	0.438795
490	H	0.093129	0.357688	0.018399
491	H	0.309816	0.574297	0.4835
492	H	0.266137	0.574752	0.01338
493	C	0.321403	0.37356	0.020863
494	H	0.299019	0.648429	0.054691
495	C	0.275431	0.335779	0.995791
496	H	0.242129	0.64701	0.012245
497	H	0.266044	0.357782	0.477821
498	C	0.290448	0.339776	0.308974
499	H	0.302217	0.627883	0.271882
500	H	0.306242	0.395509	0.351948
501	H	0.089492	0.395287	0.316894
502	H	0.088863	0.350974	0.346267
503	C	0.290138	0.607695	0.353885
504	H	0.30222	0.331218	0.390814
505	C	0.258137	0.62444	0.331487
506	H	0.233749	0.631668	0.348969
507	H	0.233696	0.592969	0.314117
508	H	0.306357	0.568031	0.310695
509	C	0.305239	0.364699	0.164964
510	C	0.326345	0.611491	0.142308
511	H	0.305809	0.647945	0.107935
512	C	0.280237	0.603441	0.167319
513	C	0.292173	0.652724	0.189914
514	H	0.247292	0.592451	0.150723
515	H	0.270452	0.571943	0.185349
516	H	0.270776	0.355175	0.150634
517	H	0.315074	0.39896	0.179953
518	H	0.334587	0.63278	0.224059
519	H	0.098076	0.399106	0.143931
520	C	0.344039	0.461257	0.048062
521	C	0.316076	0.407994	0.049512
522	H	0.343555	0.477484	0.024515
523	C	0.305772	0.574463	0.078653
524	C	0.319612	0.570971	0.114139
525	C	0.348174	0.546228	0.114221
526	H	0.275217	0.578698	0.076729
527	H	0.35011	0.53086	0.137784
528	C	0.172628	0.536841	0.412465
529	C	0.202565	0.542642	0.381505
530	C	0.255844	0.567749	0.382412
531	C	0.272139	0.573332	0.418307
532	C	0.252654	0.594595	0.443657
533	C	0.19902	0.569521	0.441884
534	H	0.18601	0.526287	0.35795
535	H	0.306685	0.577256	0.42163
536	C	0.125412	0.490036	0.416512
537	C	0.093498	0.462935	0.387003
538	C	0.093875	0.407482	0.447184
539	C	0.118804	0.460764	0.447808
540	H	0.134503	0.47781	0.47139
541	O	0.171728	0.575626	0.468178
542	O	0.088098	0.48963	0.360185
543	H	0.17815	0.563266	0.490542
544	H	0.101106	0.482759	0.338152
545	C	0.127967	0.629494	0.245266
546	C	0.123004	0.321067	0.214687
547	C	0.097851	0.34924	0.215755
548	C	0.094673	0.622818	0.274525
549	H	0.139865	0.321237	0.191147
550	C	0.174859	0.629445	0.24942
551	C	0.202579	0.625068	0.2199
552	C	0.256282	0.653486	0.219162
553	C	0.274519	0.693158	0.245151
554	C	0.256804	0.346296	0.280769
555	C	0.203492	0.317867	0.281066
556	H	0.309358	0.723649	0.242963
557	H	0.185985	0.316173	0.304629
558	O	0.087942	0.589015	0.300441
559	O	0.176439	0.593341	0.192724
560	H	0.100173	0.607518	0.322975
561	H	0.183701	0.613541	0.170927
562	C	0.287485	0.631584	0.973012
563	C	0.300309	0.599183	0.498224
564	H	0.330151	0.361686	0.938795
565	H	0.093129	0.357688	0.5184
566	H	0.309815	0.574296	0.983497
567	H	0.266138	0.574755	0.51338
568	C	0.321403	0.37356	0.520862
569	H	0.299021	0.648432	0.554692
570	C	0.275431	0.335779	0.495791
571	H	0.242128	0.647009	0.512243
572	H	0.266044	0.357782	0.977821
573	C	0.290448	0.339776	0.808974
574	H	0.302217	0.627883	0.771882
575	H	0.306242	0.395508	0.851948
576	H	0.089492	0.395287	0.816894
577	H	0.088863	0.350974	0.846267
578	C	0.29014	0.607698	0.853885
579	H	0.30222	0.331217	0.890814
580	C	0.258137	0.62444	0.831487
581	H	0.233751	0.631671	0.848969
582	H	0.233696	0.592968	0.814117
583	H	0.306357	0.56803	0.810695
584	C	0.305239	0.364699	0.664963
585	C	0.326347	0.611494	0.642307
586	H	0.305809	0.647944	0.607935
587	C	0.280236	0.60344	0.667319
588	C	0.292172	0.652723	0.689914
589	H	0.247292	0.59245	0.650722
590	H	0.270451	0.571942	0.685347
591	H	0.270776	0.355175	0.650634
592	H	0.315076	0.398963	0.679951
593	H	0.334587	0.632779	0.724059
594	H	0.098077	0.399109	0.643931
595	C	0.34404	0.46126	0.548061
596	C	0.316076	0.407993	0.549512
597	H	0.343555	0.477484	0.524516
598	C	0.305771	0.574462	0.578653
599	C	0.319612	0.57097	0.614139
600	C	0.348174	0.546227	0.614219
601	H	0.275216	0.578697	0.576727
602	H	0.350109	0.530859	0.637783
603	C	0.172628	0.53684	0.912465
604	C	0.202567	0.542645	0.881503
605	C	0.255843	0.567748	0.882409
606	C	0.272138	0.573331	0.918307
607	C	0.252653	0.594594	0.943657
608	C	0.199021	0.569524	0.941884
609	H	0.186009	0.526286	0.85795
610	H	0.306685	0.577255	0.92163
611	C	0.125414	0.490039	0.916512
612	C	0.093498	0.462934	0.887003
613	C	0.093875	0.407482	0.947184
614	C	0.118806	0.460767	0.947808
615	H	0.134502	0.47781	0.97139
616	O	0.17173	0.575629	0.968176
617	O	0.088097	0.489629	0.860185
618	H	0.178149	0.563265	0.990542
619	H	0.101106	0.482758	0.838153
620	C	0.127966	0.629493	0.745264
621	C	0.123004	0.321067	0.714686
622	C	0.097851	0.34924	0.715755
623	C	0.094672	0.622818	0.774525
624	H	0.139865	0.321237	0.691146
625	C	0.174858	0.629445	0.74942
626	C	0.202579	0.625067	0.7199
627	C	0.256283	0.653489	0.719161
628	C	0.274518	0.693157	0.74515
629	C	0.256804	0.346296	0.78077
630	C	0.203492	0.317867	0.781066
631	H	0.309357	0.723648	0.742962
632	H	0.185985	0.316173	0.804629
633	O	0.087941	0.589015	0.800441
634	O	0.176439	0.59334	0.692722
635	H	0.100174	0.607521	0.822973
636	H	0.1837	0.61354	0.670927
637	C	0.28754	0.965169	0.473086
638	C	0.300214	0.932554	0.998237
639	H	0.330174	0.694948	0.438712
640	H	0.093145	0.691014	0.01833
641	H	0.309659	0.907626	0.483516
642	H	0.266045	0.908156	0.013417
643	C	0.321395	0.706814	0.020751
644	H	0.298726	0.981446	0.054811
645	C	0.27542	0.669022	0.99569
646	H	0.242155	0.9805	0.012388
647	H	0.266023	0.691017	0.477722
648	C	0.290452	0.673134	0.308934
649	H	0.304489	0.96092	0.271863
650	H	0.30628	0.728872	0.351911
651	H	0.0895	0.72859	0.31684
652	H	0.088841	0.684259	0.346211
653	C	0.291637	0.940896	0.353901
654	H	0.302199	0.66454	0.390748
655	C	0.260156	0.957946	0.331244
656	H	0.235799	0.965444	0.348555
657	H	0.235714	0.926538	0.313826
658	H	0.307989	0.900947	0.310951
659	C	0.305258	0.698076	0.164907
660	C	0.328323	0.945244	0.142197
661	H	0.308633	0.982242	0.107864
662	C	0.282511	0.937611	0.167247
663	C	0.295077	0.986887	0.18997
664	H	0.249693	0.927105	0.150637
665	H	0.272376	0.905937	0.185182
666	H	0.270798	0.68857	0.150581
667	H	0.315123	0.732352	0.179888
668	H	0.336964	0.966304	0.223999
669	H	0.098074	0.732405	0.143874
670	C	0.344026	0.794424	0.047852
671	C	0.315978	0.741191	0.049381
672	H	0.343486	0.810622	0.024304
673	C	0.306091	0.907728	0.078777
674	C	0.320402	0.904311	0.114124
675	C	0.348554	0.879204	0.11399
676	H	0.275627	0.912155	0.07716
677	H	0.35042	0.863667	0.13749
678	C	0.1731	0.870357	0.412249
679	C	0.203277	0.876406	0.381345
680	C	0.256604	0.901337	0.382449
681	C	0.272577	0.906961	0.418421
682	C	0.252902	0.928235	0.44362
683	C	0.199281	0.903012	0.441726
684	H	0.186816	0.860213	0.357728
685	H	0.307067	0.910832	0.42195
686	C	0.125895	0.823451	0.416261
687	C	0.093941	0.796346	0.386765
688	C	0.093895	0.740864	0.447074
689	C	0.118975	0.794183	0.44764
690	H	0.134621	0.811241	0.471225
691	O	0.171822	0.908963	0.467976
692	O	0.08859	0.823038	0.359929
693	H	0.178302	0.896719	0.490374
694	H	0.101616	0.816129	0.337923
695	C	0.130026	0.96164	0.245578
696	C	0.122984	0.654384	0.214651
697	C	0.097832	0.682558	0.215714
698	C	0.09717	0.955502	0.275067
699	H	0.139847	0.654556	0.191112
700	C	0.177712	0.963101	0.249547
701	C	0.205553	0.958772	0.220086
702	C	0.259233	0.98766	0.219183
703	C	0.277559	0.027288	0.245168
704	C	0.256813	0.679671	0.280737
705	C	0.2035	0.651241	0.281036
706	H	0.31257	0.057569	0.243091
707	H	0.185992	0.64954	0.3046
708	O	0.091204	0.922472	0.301407
709	O	0.179593	0.926561	0.193105
710	H	0.102991	0.941429	0.32381
711	H	0.186218	0.946539	0.171255
712	C	0.287539	0.965169	0.973086
713	C	0.300213	0.932553	0.498237
714	H	0.330174	0.694948	0.938712
715	H	0.093145	0.691013	0.51833
716	H	0.30966	0.907629	0.983516
717	H	0.266045	0.908155	0.513417
718	C	0.321397	0.706817	0.52075
719	H	0.298726	0.981446	0.554809
720	C	0.27542	0.669023	0.495692
721	H	0.242156	0.980503	0.512387
722	H	0.266022	0.691016	0.97772
723	C	0.290452	0.673133	0.808934
724	H	0.304489	0.960919	0.771861
725	H	0.306282	0.728875	0.851911
726	H	0.0895	0.728589	0.816838
727	H	0.088842	0.684262	0.846211
728	C	0.291637	0.940895	0.853898
729	H	0.302199	0.664539	0.890748
730	C	0.260155	0.957945	0.831244
731	H	0.235798	0.965443	0.848555
732	H	0.235714	0.926537	0.813826
733	H	0.307989	0.900946	0.810951
734	C	0.305258	0.698076	0.664907
735	C	0.328323	0.945243	0.642197
736	H	0.308633	0.982242	0.607863
737	C	0.282511	0.93761	0.667246
738	C	0.295077	0.986886	0.68997
739	H	0.249692	0.927105	0.650637
740	H	0.272376	0.905936	0.685182
741	H	0.270797	0.688569	0.650581
742	H	0.315123	0.732352	0.679887
743	H	0.336964	0.966303	0.723997
744	H	0.098074	0.732404	0.643872
745	C	0.344025	0.794424	0.547853
746	C	0.315977	0.74119	0.549381
747	H	0.343485	0.810621	0.524302
748	C	0.306093	0.907731	0.578775
749	C	0.320402	0.90431	0.614123
750	C	0.348555	0.879207	0.61399
751	H	0.275628	0.912158	0.577159
752	H	0.350419	0.863666	0.637489
753	C	0.1731	0.870357	0.912249
754	C	0.203278	0.876409	0.881345
755	C	0.256604	0.901336	0.882447
756	C	0.272579	0.906964	0.918419
757	C	0.252903	0.928238	0.94362
758	C	0.199281	0.903011	0.941726
759	H	0.186816	0.860212	0.857728
760	H	0.307069	0.910835	0.92195
761	C	0.125895	0.82345	0.916261
762	C	0.093941	0.796345	0.886765
763	C	0.093896	0.740867	0.947074
764	C	0.118975	0.794183	0.947637
765	H	0.134622	0.811244	0.971225
766	O	0.171822	0.908962	0.967976
767	O	0.088592	0.823041	0.859929
768	H	0.178302	0.896718	0.990374
769	H	0.101616	0.816129	0.837923
770	C	0.130026	0.96164	0.745576
771	C	0.122983	0.654383	0.714651
772	C	0.097833	0.682561	0.715715
773	C	0.09717	0.955501	0.775067
774	H	0.139849	0.654559	0.691111
775	C	0.177711	0.9631	0.749548
776	C	0.205552	0.958771	0.720084
777	C	0.259233	0.987659	0.719183
778	C	0.277559	0.027289	0.745168
779	C	0.256813	0.67967	0.780735
780	C	0.2035	0.65124	0.781036
781	H	0.31257	0.057569	0.74309
782	H	0.185991	0.649539	0.8046
783	O	0.091204	0.922471	0.801407
784	O	0.179594	0.926564	0.693104
785	H	0.102993	0.941432	0.82381
786	H	0.186218	0.946539	0.671256
787	C	0.620818	0.298326	0.473108
788	C	0.633627	0.265899	0.998312
789	C	0.338048	0.004602	0.455484
790	C	0.386939	0.040289	0.475724
791	H	0.663628	0.028813	0.438851
792	H	0.350527	0.315896	0.441398
793	C	0.394969	0.002303	0.000456
794	C	0.345713	0.298414	0.02316
795	H	0.406183	0.313764	0.483764
796	H	0.426396	0.024082	0.018448
797	H	0.643115	0.240999	0.483588
798	H	0.599458	0.241483	0.013477
799	C	0.333421	0.00331	0.040858
800	C	0.654825	0.040189	0.0211
801	H	0.365297	0.026992	0.057435
802	H	0.632335	0.315098	0.054767
803	C	0.370405	0.072298	0.998535
804	H	0.401918	0.096406	0.01593
805	H	0.363566	0.096969	0.481329
806	C	0.608852	0.002576	0.995908
807	H	0.575471	0.313776	0.012343
808	H	0.599549	0.02472	0.478016
809	C	0.365635	0.315626	0.306059
810	C	0.399826	0.026961	0.331633
811	C	0.326332	0.326588	0.288614
812	C	0.626264	0.00654	0.308737
813	H	0.635581	0.294547	0.271924
814	H	0.350649	0.026897	0.274482
815	C	0.330573	0.052509	0.333629
816	C	0.367152	0.04017	0.356456
817	H	0.353025	0.085407	0.316923
818	H	0.64196	0.062459	0.351471
819	H	0.425068	0.061334	0.317094
820	H	0.42393	0.017069	0.346776
821	C	0.326304	0.323257	0.37409
822	C	0.623502	0.274375	0.353949
823	H	0.637311	0.997985	0.390622
824	H	0.348025	0.310665	0.38796
825	C	0.591483	0.291092	0.331537
826	H	0.56709	0.298322	0.349011
827	H	0.56705	0.259613	0.314173
828	C	0.32821	0.266239	0.328737
829	H	0.350226	0.255178	0.34521
830	H	0.639719	0.23471	0.310756
831	C	0.353478	0.044823	0.139369
832	C	0.641939	0.032514	0.165184
833	C	0.34242	0.994332	0.121835
834	C	0.659734	0.278143	0.142347
835	H	0.374401	0.001803	0.104935
836	H	0.639175	0.314607	0.107991
837	C	0.613601	0.27007	0.167349
838	C	0.625505	0.319339	0.189955
839	H	0.580659	0.259076	0.150747
840	H	0.603816	0.238567	0.185374
841	H	0.607392	0.023509	0.151188
842	H	0.6524	0.066818	0.180311
843	C	0.345403	0.998309	0.207362
844	C	0.394092	0.010057	0.187112
845	H	0.667932	0.299404	0.224098
846	H	0.358329	0.032951	0.221243
847	C	0.37493	0.294681	0.164831
848	H	0.36754	0.263192	0.182303
849	H	0.406486	0.301521	0.147418
850	C	0.402786	0.056297	0.161846
851	H	0.414328	0.089707	0.178237
852	H	0.434212	0.065412	0.143713
853	C	0.369988	0.158592	0.078492
854	C	0.677563	0.127934	0.048341
855	C	0.649918	0.074673	0.049963
856	C	0.30785	0.059192	0.086196
857	C	0.350185	0.07919	0.10997
858	C	0.377855	0.132838	0.107593
859	H	0.676298	0.143919	0.024878
860	H	0.277759	0.024535	0.09037
861	C	0.36987	0.205529	0.082482
862	C	0.373702	0.23694	0.052851
863	C	0.345263	0.262217	0.05238
864	C	0.639199	0.241112	0.078721
865	C	0.653078	0.237615	0.114196
866	C	0.681667	0.212874	0.114261
867	H	0.60865	0.245359	0.076818
868	H	0.68374	0.197536	0.137811
869	O	0.411924	0.16072	0.13309
870	O	0.404962	0.241907	0.025289
871	H	0.393833	0.154267	0.155922
872	H	0.384393	0.228511	0.50375
873	C	0.506044	0.203581	0.412572
874	C	0.535993	0.209391	0.381609
875	C	0.589253	0.234467	0.382508
876	C	0.605532	0.240067	0.418408
877	C	0.586035	0.261346	0.443743
878	C	0.532416	0.23631	0.441964
879	H	0.519486	0.193019	0.358054
880	H	0.640073	0.243977	0.421742
881	C	0.458882	0.156746	0.416656
882	C	0.427405	0.129429	0.387056
883	C	0.403206	0.075814	0.38572
884	C	0.423585	0.057092	0.411937
885	C	0.427461	0.074351	0.44752
886	C	0.452129	0.127629	0.448053
887	H	0.419736	0.022428	0.409544
888	H	0.467445	0.144807	0.471675
889	O	0.505128	0.242496	0.468221
890	O	0.421712	0.155957	0.360249
891	H	0.511561	0.230215	0.490622
892	H	0.435182	0.14955	0.338264
893	C	0.461302	0.296157	0.245295
894	C	0.457548	0.985648	0.214762
895	C	0.433105	0.014512	0.215842
896	C	0.42516	0.359501	0.251865
897	C	0.4031	0.318171	0.27663
898	C	0.428011	0.289485	0.274557
899	H	0.473846	0.985208	0.191111
900	H	0.420674	0.389746	0.255474
901	C	0.508186	0.296088	0.249445
902	C	0.535907	0.29171	0.219924
903	C	0.589612	0.320101	0.2192
904	C	0.607846	0.35978	0.245183
905	C	0.593028	0.013762	0.280681
906	C	0.539734	0.985614	0.280993
907	H	0.642679	0.390275	0.242996
908	H	0.522234	0.983932	0.304557
909	O	0.421269	0.25567	0.300465
910	O	0.509766	0.259999	0.192738
911	H	0.433507	0.274167	0.322999
912	H	0.517054	0.280209	0.170944
913	C	0.620819	0.298326	0.973108
914	C	0.633628	0.265899	0.498312
915	C	0.338048	0.004602	0.955482
916	C	0.38694	0.040289	0.975725
917	H	0.663625	0.028813	0.938851
918	H	0.350527	0.315895	0.941396
919	C	0.39497	0.002303	0.500456
920	C	0.345713	0.298414	0.523158
921	H	0.406183	0.313764	0.983764
922	H	0.426397	0.024082	0.518448
923	H	0.643115	0.240999	0.983588
924	H	0.599459	0.241483	0.513476
925	C	0.333421	0.00331	0.540859
926	C	0.654826	0.040189	0.521099
927	H	0.365297	0.026992	0.557434
928	H	0.632336	0.315098	0.554766
929	C	0.370406	0.072298	0.498536
930	H	0.401916	0.096406	0.51593
931	H	0.363566	0.096969	0.981326
932	C	0.608852	0.002576	0.495908
933	H	0.575468	0.313776	0.512342
934	H	0.599549	0.02472	0.978016
935	C	0.365635	0.315626	0.806059
936	C	0.399827	0.026961	0.831633
937	C	0.326332	0.326588	0.788614
938	C	0.626265	0.00654	0.808734
939	H	0.635578	0.294547	0.771925
940	H	0.35065	0.026897	0.774483
941	C	0.330573	0.052509	0.833629
942	C	0.367153	0.04017	0.856456
943	H	0.353025	0.085407	0.81692
944	H	0.641961	0.062459	0.851471
945	H	0.425069	0.061334	0.817094
946	H	0.423927	0.017069	0.846776
947	C	0.326304	0.323257	0.87409
948	C	0.623503	0.274375	0.853946
949	H	0.637311	0.997984	0.890622
950	H	0.348025	0.310665	0.88796
951	C	0.591484	0.291092	0.831537
952	H	0.567091	0.298322	0.849011
953	H	0.56705	0.259613	0.81417
954	C	0.32821	0.266239	0.828737
955	H	0.350226	0.255178	0.84521
956	H	0.639719	0.23471	0.810753
957	C	0.353476	0.044823	0.639367
958	C	0.641939	0.032514	0.665185
959	C	0.34242	0.994331	0.621835
960	C	0.659732	0.278143	0.642347
961	H	0.374401	0.001803	0.604934
962	H	0.639172	0.314607	0.607991
963	C	0.613602	0.27007	0.667348
964	C	0.625506	0.319339	0.689954
965	H	0.58066	0.259076	0.650746
966	H	0.603817	0.238567	0.685374
967	H	0.607389	0.023509	0.651189
968	H	0.652401	0.066818	0.680311
969	C	0.345403	0.998309	0.707361
970	C	0.394089	0.010057	0.687113
971	H	0.667933	0.299404	0.724096
972	H	0.35833	0.032951	0.721242
973	C	0.37493	0.294681	0.66483
974	H	0.36754	0.263192	0.682301
975	H	0.406486	0.301521	0.647417
976	C	0.402786	0.056297	0.661845
977	H	0.414328	0.089707	0.678236
978	H	0.434212	0.065412	0.643712
979	C	0.369988	0.158592	0.578493
980	C	0.677564	0.127934	0.548341
981	C	0.649918	0.074673	0.549962
982	C	0.30785	0.059192	0.586196
983	C	0.350185	0.07919	0.60997
984	C	0.377855	0.132838	0.607594
985	H	0.676298	0.14392	0.524879
986	H	0.277759	0.024535	0.59037
987	C	0.36987	0.205529	0.582483
988	C	0.373702	0.23694	0.552851
989	C	0.345263	0.262217	0.552379
990	C	0.639199	0.241112	0.578722
991	C	0.653076	0.237615	0.614195
992	C	0.681668	0.212874	0.614259
993	H	0.60865	0.245358	0.576818
994	H	0.683741	0.197536	0.637809
995	O	0.411925	0.16072	0.633088
996	O	0.404962	0.241907	0.525289
997	H	0.393833	0.154267	0.655921
998	H	0.384393	0.228511	0.003751
999	C	0.506045	0.203581	0.912569
1000	C	0.535993	0.20939	0.881609
1001	C	0.589254	0.234467	0.882508
1002	C	0.605532	0.240067	0.918408
1003	C	0.586036	0.261346	0.943743
1004	C	0.532413	0.23631	0.941964
1005	H	0.519486	0.193019	0.858054
1006	H	0.640073	0.243977	0.921742
1007	C	0.458883	0.156746	0.916656
1008	C	0.427405	0.129429	0.887053
1009	C	0.403206	0.075814	0.885717
1010	C	0.423585	0.057092	0.911934
1011	C	0.427462	0.074351	0.94752
1012	C	0.452127	0.127629	0.948053
1013	H	0.419734	0.022428	0.909545
1014	H	0.467446	0.144807	0.971673
1015	O	0.505128	0.242496	0.968221
1016	O	0.42171	0.155957	0.860249
1017	H	0.511562	0.230215	0.990619
1018	H	0.435183	0.14955	0.838265
1019	C	0.461302	0.296157	0.745294
1020	C	0.45755	0.985651	0.714763
1021	C	0.433106	0.014513	0.715841
1022	C	0.42516	0.359501	0.751863
1023	C	0.4031	0.318171	0.77663
1024	C	0.428011	0.289485	0.774555
1025	H	0.473845	0.985208	0.691111
1026	H	0.420673	0.389745	0.755475
1027	C	0.508187	0.296088	0.749444
1028	C	0.535907	0.29171	0.719924
1029	C	0.589609	0.320101	0.719199
1030	C	0.607843	0.35978	0.745184
1031	C	0.593029	0.013762	0.780681
1032	C	0.539733	0.985613	0.780994
1033	H	0.64268	0.390274	0.742994
1034	H	0.522234	0.983931	0.804557
1035	O	0.421269	0.255669	0.800463
1036	O	0.509767	0.259999	0.692736
1037	H	0.433507	0.274167	0.822999
1038	H	0.517051	0.280209	0.670943
1039	C	0.620818	0.631585	0.473012
1040	C	0.633641	0.599183	0.998223
1041	C	0.337976	0.337576	0.455444
1042	C	0.386873	0.373535	0.475556
1043	H	0.663485	0.361686	0.438795
1044	H	0.350549	0.649149	0.441329
1045	C	0.395031	0.335757	0.000447
1046	C	0.345718	0.631721	0.023078
1047	H	0.406229	0.647092	0.4837
1048	H	0.426463	0.357688	0.018399
1049	H	0.643149	0.574297	0.4835
1050	H	0.59947	0.574752	0.01338
1051	C	0.333607	0.336993	0.040821
1052	C	0.654737	0.37356	0.020863
1053	H	0.365455	0.360894	0.057399
1054	H	0.632353	0.648429	0.054691
1055	C	0.370286	0.405624	0.998247
1056	H	0.401791	0.429879	0.0156
1057	H	0.363378	0.43016	0.480944
1058	C	0.608764	0.335779	0.995791
1059	H	0.575462	0.64701	0.012245
1060	H	0.599378	0.357782	0.477821
1061	C	0.365611	0.648943	0.306008
1062	C	0.397831	0.360811	0.331412
1063	C	0.326317	0.659925	0.288569
1064	C	0.62378	0.339776	0.308974
1065	H	0.635551	0.627883	0.271882
1066	H	0.348095	0.360653	0.2746
1067	C	0.328204	0.385811	0.333919
1068	C	0.365274	0.373773	0.356517
1069	H	0.350404	0.418859	0.317288
1070	H	0.639576	0.395509	0.351948
1071	H	0.422826	0.395287	0.316894
1072	H	0.422197	0.350974	0.346267
1073	C	0.32629	0.656584	0.374031
1074	C	0.623472	0.607695	0.353885
1075	H	0.635552	0.331218	0.390814
1076	H	0.347995	0.643979	0.387899
1077	C	0.591471	0.62444	0.331487
1078	H	0.567083	0.631668	0.348969
1079	H	0.56703	0.592969	0.314117
1080	C	0.328178	0.599555	0.328681
1081	H	0.350187	0.588486	0.345157
1082	H	0.639689	0.568031	0.310695
1083	C	0.350485	0.377438	0.139428
1084	C	0.638572	0.364699	0.164964
1085	C	0.339773	0.327043	0.121963
1086	C	0.659679	0.611491	0.142308
1087	H	0.371898	0.334851	0.10518
1088	H	0.639143	0.647945	0.107935
1089	C	0.61357	0.603441	0.167319
1090	C	0.625506	0.652724	0.189914
1091	H	0.580626	0.592451	0.150723
1092	H	0.603785	0.571943	0.185349
1093	H	0.60411	0.355175	0.150634
1094	H	0.648408	0.39896	0.179953
1095	C	0.342655	0.33129	0.207424
1096	C	0.391573	0.343637	0.18723
1097	H	0.66792	0.63278	0.224059
1098	H	0.355213	0.365823	0.221267
1099	C	0.374881	0.628004	0.164792
1100	H	0.367477	0.596514	0.182271
1101	H	0.406429	0.634818	0.14738
1102	C	0.399822	0.389599	0.161989
1103	H	0.410861	0.422873	0.178419
1104	H	0.431409	0.399106	0.143931
1105	C	0.369331	0.491632	0.078421
1106	C	0.677374	0.461257	0.048062
1107	C	0.64941	0.407994	0.049512
1108	C	0.30614	0.392164	0.085643
1109	C	0.347775	0.411921	0.109991
1110	C	0.376271	0.465514	0.107662
1111	H	0.67689	0.477484	0.024515
1112	H	0.275999	0.357433	0.089461
1113	C	0.369625	0.538756	0.082443
1114	C	0.37361	0.570239	0.052826
1115	C	0.345204	0.595541	0.052326
1116	C	0.639106	0.574463	0.078653
1117	C	0.652946	0.570971	0.114139
1118	C	0.681507	0.546228	0.114221
1119	H	0.608551	0.578698	0.076729
1120	H	0.683442	0.53086	0.137784
1121	O	0.410308	0.49304	0.133276
1122	O	0.40502	0.575285	0.025347
1123	H	0.39202	0.487055	0.155982
1124	H	0.384597	0.562098	0.503726
1125	C	0.505962	0.536841	0.412465
1126	C	0.535899	0.542642	0.381505
1127	C	0.589177	0.567749	0.382412
1128	C	0.605472	0.573332	0.418307
1129	C	0.585987	0.594595	0.443657
1130	C	0.532353	0.569521	0.441884
1131	H	0.519343	0.526287	0.35795
1132	H	0.640019	0.577256	0.42163
1133	C	0.458746	0.490036	0.416512
1134	C	0.426832	0.462935	0.387003
1135	C	0.401832	0.409262	0.385712
1136	C	0.422649	0.39038	0.411492
1137	C	0.427209	0.407482	0.447184
1138	C	0.452138	0.460764	0.447808
1139	H	0.418757	0.355727	0.408846
1140	H	0.467836	0.47781	0.47139
1141	O	0.505062	0.575626	0.468178
1142	O	0.421432	0.48963	0.360185
1143	H	0.511483	0.563266	0.490542
1144	H	0.43444	0.482759	0.338152
1145	C	0.4613	0.629494	0.245266
1146	C	0.456338	0.321067	0.214687
1147	C	0.431185	0.34924	0.215755
1148	C	0.425144	0.69282	0.251824
1149	C	0.403076	0.651485	0.276584
1150	C	0.428006	0.622818	0.274525
1151	H	0.473199	0.321237	0.191147
1152	H	0.420663	0.723067	0.255435
1153	C	0.508192	0.629445	0.24942
1154	C	0.535913	0.625068	0.2199
1155	C	0.589616	0.653486	0.219162
1156	C	0.607852	0.693158	0.245151
1157	C	0.590136	0.346296	0.280769
1158	C	0.536826	0.317867	0.281066
1159	H	0.642692	0.723649	0.242963
1160	H	0.519318	0.316173	0.304629
1161	O	0.421275	0.589015	0.300441
1162	O	0.509773	0.593341	0.192724
1163	H	0.433506	0.607518	0.322975
1164	H	0.517034	0.613541	0.170927
1165	C	0.620818	0.631584	0.973012
1166	C	0.633642	0.599183	0.498224
1167	C	0.337976	0.337575	0.955442
1168	C	0.386873	0.373535	0.975556
1169	H	0.663485	0.361686	0.938795
1170	H	0.35055	0.649152	0.941329
1171	C	0.395032	0.335757	0.500446
1172	C	0.345718	0.63172	0.523078
1173	H	0.406229	0.647091	0.9837
1174	H	0.426463	0.357688	0.5184
1175	H	0.643149	0.574296	0.983497
1176	H	0.599472	0.574755	0.51338
1177	C	0.333607	0.336993	0.540819
1178	C	0.654738	0.37356	0.520862
1179	H	0.365455	0.360894	0.557399
1180	H	0.632354	0.648432	0.554692
1181	C	0.370286	0.405624	0.498248
1182	H	0.401791	0.429879	0.515599
1183	H	0.363378	0.430159	0.980945
1184	C	0.608764	0.335779	0.495791
1185	H	0.575462	0.647009	0.512243
1186	H	0.599378	0.357782	0.977821
1187	C	0.365611	0.648942	0.806008
1188	C	0.397831	0.360811	0.831412
1189	C	0.326317	0.659925	0.788569
1190	C	0.623781	0.339776	0.808974
1191	H	0.63555	0.627883	0.771882
1192	H	0.348095	0.360653	0.7746
1193	C	0.328203	0.38581	0.833919
1194	C	0.365274	0.373773	0.856517
1195	H	0.350405	0.418862	0.817288
1196	H	0.639577	0.395508	0.851948
1197	H	0.422825	0.395287	0.816894
1198	H	0.422197	0.350974	0.846267
1199	C	0.32629	0.656583	0.874031
1200	C	0.623474	0.607698	0.853885
1201	H	0.635553	0.331217	0.890814
1202	H	0.347995	0.643979	0.887899
1203	C	0.59147	0.62444	0.831487
1204	H	0.567084	0.631671	0.848969
1205	H	0.567029	0.592968	0.814117
1206	C	0.328177	0.599554	0.828681
1207	H	0.350189	0.588489	0.845154
1208	H	0.63969	0.56803	0.810695
1209	C	0.350485	0.377437	0.639426
1210	C	0.638573	0.364699	0.664963
1211	C	0.339773	0.327043	0.621963
1212	C	0.659681	0.611494	0.642307
1213	H	0.371898	0.334851	0.60518
1214	H	0.639142	0.647944	0.607935
1215	C	0.61357	0.60344	0.667319
1216	C	0.625506	0.652723	0.689914
1217	H	0.580625	0.59245	0.650722
1218	H	0.603785	0.571942	0.685347
1219	H	0.60411	0.355175	0.650634
1220	H	0.64841	0.398963	0.679951
1221	C	0.342655	0.331289	0.707422
1222	C	0.391573	0.343637	0.68723
1223	H	0.66792	0.632779	0.724059
1224	H	0.355213	0.365823	0.721266
1225	C	0.374881	0.628003	0.664793
1226	H	0.367478	0.596517	0.682269
1227	H	0.406428	0.634818	0.64738
1228	C	0.399822	0.389599	0.661989
1229	H	0.410861	0.422872	0.678417
1230	H	0.431411	0.399109	0.643931
1231	C	0.36933	0.491631	0.578421
1232	C	0.677373	0.46126	0.548061
1233	C	0.64941	0.407993	0.549512
1234	C	0.30614	0.392163	0.585641
1235	C	0.347775	0.41192	0.609992
1236	C	0.376271	0.465514	0.60766
1237	H	0.676887	0.477484	0.524516
1238	H	0.275999	0.357433	0.589461
1239	C	0.369625	0.538755	0.582443
1240	C	0.37361	0.570238	0.552825
1241	C	0.345203	0.595541	0.552326
1242	C	0.639106	0.574462	0.578653
1243	C	0.652946	0.57097	0.614139
1244	C	0.681508	0.546227	0.614219
1245	H	0.60855	0.578697	0.576727
1246	H	0.683442	0.530859	0.637783
1247	O	0.410307	0.493039	0.633275
1248	O	0.405021	0.575288	0.525348
1249	H	0.39202	0.487054	0.655982
1250	H	0.384598	0.562099	0.003727
1251	C	0.505962	0.53684	0.912465
1252	C	0.5359	0.542645	0.881503
1253	C	0.589177	0.567748	0.882409
1254	C	0.605472	0.573331	0.918307
1255	C	0.585987	0.594594	0.943657
1256	C	0.532355	0.569524	0.941884
1257	H	0.519343	0.526286	0.85795
1258	H	0.64002	0.577255	0.92163
1259	C	0.458747	0.490039	0.916512
1260	C	0.426831	0.462934	0.887003
1261	C	0.401833	0.409265	0.885712
1262	C	0.422649	0.390379	0.911492
1263	C	0.427208	0.407482	0.947184
1264	C	0.452139	0.460767	0.947808
1265	H	0.418757	0.355727	0.908846
1266	H	0.467836	0.47781	0.97139
1267	O	0.505063	0.575629	0.968176
1268	O	0.421431	0.489629	0.860185
1269	H	0.511483	0.563265	0.990542
1270	H	0.434439	0.482758	0.838153
1271	C	0.4613	0.629493	0.745264
1272	C	0.456338	0.321067	0.714686
1273	C	0.431185	0.34924	0.715755
1274	C	0.425143	0.692819	0.751823
1275	C	0.403076	0.651484	0.776584
1276	C	0.428006	0.622818	0.774525
1277	H	0.473198	0.321237	0.691146
1278	H	0.420662	0.723066	0.755435
1279	C	0.508192	0.629445	0.74942
1280	C	0.535913	0.625067	0.7199
1281	C	0.589617	0.653489	0.719161
1282	C	0.607852	0.693157	0.74515
1283	C	0.590137	0.346296	0.78077
1284	C	0.536827	0.317867	0.781066
1285	H	0.642691	0.723648	0.742962
1286	H	0.519319	0.316173	0.804629
1287	O	0.421275	0.589015	0.800441
1288	O	0.509773	0.59334	0.692722
1289	H	0.433508	0.607521	0.822973
1290	H	0.517034	0.61354	0.670927
1291	C	0.620873	0.965169	0.473086
1292	C	0.633547	0.932554	0.998237
1293	C	0.337998	0.670844	0.455362
1294	C	0.386912	0.706851	0.475458
1295	H	0.663508	0.694948	0.438712
1296	H	0.350563	0.983	0.441369
1297	C	0.395057	0.669076	0.000371
1298	C	0.345614	0.964889	0.023097
1299	H	0.40608	0.980368	0.48367
1300	H	0.426479	0.691014	0.01833
1301	H	0.642992	0.907626	0.483516
1302	H	0.599379	0.908156	0.013417
1303	C	0.333619	0.670296	0.040735
1304	C	0.654729	0.706814	0.020751
1305	H	0.365469	0.694206	0.057312
1306	H	0.63206	0.981446	0.054811
1307	C	0.3703	0.738911	0.998136
1308	H	0.401805	0.763171	0.015487
1309	H	0.363399	0.76344	0.480822
1310	C	0.608754	0.669022	0.99569
1311	H	0.575488	0.9805	0.012388
1312	H	0.599356	0.691017	0.477722
1313	C	0.367706	0.981724	0.306248
1314	C	0.397824	0.694119	0.331356
1315	C	0.328648	0.992909	0.288555
1316	C	0.623786	0.673134	0.308934
1317	H	0.637822	0.96092	0.271863
1318	H	0.348085	0.693984	0.274552
1319	C	0.328228	0.719166	0.333877
1320	C	0.365291	0.70711	0.356461
1321	H	0.350442	0.752222	0.317248
1322	H	0.639614	0.728872	0.351911
1323	H	0.422834	0.72859	0.31684
1324	H	0.422174	0.684259	0.346211
1325	C	0.32795	0.989747	0.374028
1326	C	0.624971	0.940896	0.353901
1327	H	0.635533	0.66454	0.390748
1328	H	0.349478	0.976982	0.388024
1329	C	0.593489	0.957946	0.331244
1330	H	0.569132	0.965444	0.348555
1331	H	0.569047	0.926538	0.313826
1332	C	0.329793	0.932471	0.328937
1333	H	0.351547	0.921248	0.345568
1334	H	0.641323	0.900947	0.310951
1335	C	0.350488	0.710767	0.13936
1336	C	0.638592	0.698076	0.164907
1337	C	0.339746	0.660372	0.121907
1338	C	0.661656	0.945244	0.142197
1339	H	0.371863	0.66816	0.105121
1340	H	0.641967	0.982242	0.107864
1341	C	0.615845	0.937611	0.167247
1342	C	0.628411	0.986887	0.18997
1343	H	0.583026	0.927105	0.150637
1344	H	0.60571	0.905937	0.185182
1345	H	0.604131	0.68857	0.150581
1346	H	0.648457	0.732352	0.179888
1347	C	0.342655	0.664664	0.207382
1348	C	0.391558	0.676968	0.187187
1349	H	0.670298	0.966304	0.223999
1350	H	0.355228	0.699207	0.221219
1351	C	0.376769	0.961047	0.164601
1352	H	0.368934	0.929343	0.181987
1353	H	0.408132	0.967472	0.147124
1354	C	0.399822	0.722917	0.161929
1355	H	0.410877	0.756198	0.178355
1356	H	0.431408	0.732405	0.143874
1357	C	0.369659	0.824822	0.078095
1358	C	0.677359	0.794424	0.047852
1359	C	0.649311	0.741191	0.049381
1360	C	0.306116	0.725444	0.08554
1361	C	0.347789	0.745182	0.109864
1362	C	0.376594	0.798731	0.107358
1363	H	0.676819	0.810622	0.024304
1364	H	0.275937	0.690751	0.089403
1365	C	0.369876	0.871867	0.082129
1366	C	0.373678	0.903373	0.052574
1367	C	0.345229	0.928649	0.052239
1368	C	0.639425	0.907728	0.078777
1369	C	0.653736	0.904311	0.114124
1370	C	0.681887	0.879204	0.11399
1371	H	0.60896	0.912155	0.07716
1372	H	0.683753	0.863667	0.13749
1373	O	0.410734	0.826271	0.132919
1374	O	0.405013	0.908505	0.025029
1375	H	0.392549	0.820369	0.155666
1376	H	0.384509	0.895269	0.503452
1377	C	0.506434	0.870357	0.412249
1378	C	0.536611	0.876406	0.381345
1379	C	0.589938	0.901337	0.382449
1380	C	0.605911	0.906961	0.418421
1381	C	0.586235	0.928235	0.44362
1382	C	0.532615	0.903012	0.441726
1383	H	0.520149	0.860213	0.357728
1384	H	0.640401	0.910832	0.42195
1385	C	0.459229	0.823451	0.416261
1386	C	0.427275	0.796346	0.386765
1387	C	0.401928	0.742644	0.38561
1388	C	0.422669	0.723713	0.411406
1389	C	0.427228	0.740864	0.447074
1390	C	0.452309	0.794183	0.44764
1391	H	0.418711	0.689031	0.408787
1392	H	0.467954	0.811241	0.471225
1393	O	0.505156	0.908963	0.467976
1394	O	0.421924	0.823038	0.359929
1395	H	0.511636	0.896719	0.490374
1396	H	0.434949	0.816129	0.337923
1397	C	0.463359	0.96164	0.245578
1398	C	0.456318	0.654384	0.214651
1399	C	0.431165	0.682558	0.215714
1400	C	0.427382	0.02506	0.251972
1401	C	0.405277	0.983943	0.27692
1402	C	0.430503	0.955502	0.275067
1403	H	0.473181	0.654556	0.191112
1404	H	0.423254	0.055516	0.255579
1405	C	0.511045	0.963101	0.249547
1406	C	0.538886	0.958772	0.220086
1407	C	0.592566	0.98766	0.219183
1408	C	0.610892	0.027288	0.245168
1409	C	0.590147	0.679671	0.280737
1410	C	0.536834	0.651241	0.281036
1411	H	0.645903	0.057569	0.243091
1412	H	0.519325	0.64954	0.3046
1413	O	0.424537	0.922472	0.301407
1414	O	0.512927	0.926561	0.193105
1415	H	0.436325	0.941429	0.32381
1416	H	0.519552	0.946539	0.171255
1417	C	0.620873	0.965169	0.973086
1418	C	0.633547	0.932553	0.498237
1419	C	0.338	0.670847	0.955359
1420	C	0.386911	0.70685	0.975458
1421	H	0.663507	0.694948	0.938712
1422	H	0.350563	0.982999	0.941369
1423	C	0.395059	0.669079	0.500371
1424	C	0.345614	0.964888	0.523097
1425	H	0.406079	0.980367	0.983671
1426	H	0.426478	0.691013	0.51833
1427	H	0.642994	0.907629	0.983516
1428	H	0.599378	0.908155	0.513417
1429	C	0.333619	0.670295	0.540733
1430	C	0.65473	0.706817	0.52075
1431	H	0.365471	0.694209	0.557311
1432	H	0.632059	0.981446	0.554809
1433	C	0.370301	0.738911	0.498136
1434	H	0.401805	0.76317	0.515487
1435	H	0.363398	0.76344	0.980822
1436	C	0.608754	0.669023	0.495692
1437	H	0.57549	0.980503	0.512387
1438	H	0.599356	0.691016	0.97772
1439	C	0.367707	0.981727	0.806248
1440	C	0.397824	0.694118	0.831356
1441	C	0.328647	0.992908	0.788553
1442	C	0.623786	0.673133	0.808934
1443	H	0.637822	0.960919	0.771861
1444	H	0.348085	0.693983	0.774552
1445	C	0.328228	0.719165	0.833874
1446	C	0.365291	0.707109	0.856461
1447	H	0.350442	0.752221	0.817248
1448	H	0.639615	0.728875	0.851911
1449	H	0.422834	0.728589	0.816838
1450	H	0.422176	0.684262	0.846211
1451	C	0.32795	0.989747	0.874029
1452	C	0.62497	0.940895	0.853898
1453	H	0.635532	0.664539	0.890748
1454	H	0.349477	0.976981	0.888024
1455	C	0.593489	0.957945	0.831244
1456	H	0.569132	0.965443	0.848555
1457	H	0.569047	0.926537	0.813826
1458	C	0.329792	0.93247	0.828937
1459	H	0.351546	0.921247	0.845565
1460	H	0.641322	0.900946	0.810951
1461	C	0.350489	0.71077	0.639359
1462	C	0.638592	0.698076	0.664907
1463	C	0.339745	0.660372	0.621907
1464	C	0.661656	0.945243	0.642197
1465	H	0.371864	0.668163	0.605121
1466	H	0.641966	0.982242	0.607863
1467	C	0.615845	0.93761	0.667246
1468	C	0.628411	0.986886	0.68997
1469	H	0.583026	0.927105	0.650637
1470	H	0.605709	0.905936	0.685182
1471	H	0.604131	0.688569	0.650581
1472	H	0.648456	0.732352	0.679887
1473	C	0.342654	0.664663	0.707382
1474	C	0.391557	0.676967	0.687185
1475	H	0.670298	0.966303	0.723997
1476	H	0.355228	0.699206	0.721218
1477	C	0.376769	0.961047	0.6646
1478	H	0.368935	0.929346	0.681986
1479	H	0.408132	0.967471	0.647124
1480	C	0.399821	0.722916	0.661928
1481	H	0.410877	0.756197	0.678356
1482	H	0.431407	0.732404	0.643872
1483	C	0.369659	0.824821	0.578095
1484	C	0.677359	0.794424	0.547853
1485	C	0.649311	0.74119	0.549381
1486	C	0.306117	0.725447	0.58554
1487	C	0.347788	0.745181	0.609863
1488	C	0.376593	0.79873	0.607356
1489	H	0.676819	0.810621	0.524302
1490	H	0.275936	0.690751	0.589402
1491	C	0.369877	0.87187	0.582128
1492	C	0.373678	0.903372	0.552574
1493	C	0.345229	0.928648	0.552238
1494	C	0.639426	0.907731	0.578775
1495	C	0.653736	0.90431	0.614123
1496	C	0.681889	0.879207	0.61399
1497	H	0.608962	0.912158	0.577159
1498	H	0.683753	0.863666	0.637489
1499	O	0.410734	0.82627	0.632918
1500	O	0.405015	0.908508	0.525028
1501	H	0.392549	0.820368	0.655665
1502	H	0.384508	0.895266	0.003451
1503	C	0.506433	0.870357	0.912249
1504	C	0.536612	0.876409	0.881345
1505	C	0.589937	0.901336	0.882447
1506	C	0.605912	0.906964	0.918419
1507	C	0.586237	0.928238	0.94362
1508	C	0.532614	0.903011	0.941726
1509	H	0.520149	0.860212	0.857728
1510	H	0.640402	0.910835	0.92195
1511	C	0.459228	0.82345	0.916261
1512	C	0.427274	0.796345	0.886765
1513	C	0.401927	0.742643	0.88561
1514	C	0.422668	0.723712	0.911404
1515	C	0.42723	0.740867	0.947074
1516	C	0.452308	0.794183	0.947637
1517	H	0.418711	0.68903	0.908787
1518	H	0.467956	0.811244	0.971225
1519	O	0.505156	0.908962	0.967976
1520	O	0.421925	0.823041	0.859929
1521	H	0.511635	0.896718	0.990374
1522	H	0.434949	0.816129	0.837923
1523	C	0.463359	0.96164	0.745576
1524	C	0.456317	0.654383	0.714651
1525	C	0.431167	0.682561	0.715715
1526	C	0.427383	0.02506	0.751973
1527	C	0.405277	0.983942	0.776921
1528	C	0.430503	0.955501	0.775067
1529	H	0.473183	0.654559	0.691111
1530	H	0.423254	0.055516	0.755579
1531	C	0.511045	0.9631	0.749548
1532	C	0.538886	0.958771	0.720084
1533	C	0.592566	0.987659	0.719183
1534	C	0.610893	0.027289	0.745168
1535	C	0.590146	0.67967	0.780735
1536	C	0.536833	0.65124	0.781036
1537	H	0.645904	0.057569	0.74309
1538	H	0.519325	0.649539	0.8046
1539	O	0.424537	0.922471	0.801407
1540	O	0.512928	0.926564	0.693104
1541	H	0.436327	0.941432	0.82381
1542	H	0.519551	0.946539	0.671256
1543	C	0.954154	0.298326	0.473108
1544	C	0.96696	0.265899	0.998312
1545	C	0.671381	0.004602	0.455484
1546	C	0.720272	0.040289	0.475724
1547	H	0.99696	0.028813	0.438851
1548	H	0.683862	0.315896	0.441398
1549	C	0.728306	0.002303	0.000456
1550	C	0.679048	0.298414	0.02316
1551	H	0.739517	0.313764	0.483764
1552	H	0.759729	0.024082	0.018448
1553	H	0.976448	0.240999	0.483588
1554	H	0.932794	0.241483	0.013477
1555	C	0.666754	0.00331	0.040858
1556	C	0.988161	0.040189	0.0211
1557	H	0.698633	0.026992	0.057435
1558	H	0.965668	0.315098	0.054767
1559	C	0.703741	0.072298	0.998535
1560	H	0.735251	0.096406	0.01593
1561	H	0.6969	0.096969	0.481329
1562	C	0.942185	0.002576	0.995908
1563	H	0.908803	0.313776	0.012343
1564	H	0.932882	0.02472	0.478016
1565	C	0.698968	0.315626	0.306059
1566	C	0.733159	0.026961	0.331633
1567	C	0.659664	0.326588	0.288614
1568	C	0.959597	0.00654	0.308737
1569	H	0.968914	0.294547	0.271924
1570	H	0.683982	0.026897	0.274482
1571	C	0.663906	0.052509	0.333629
1572	C	0.700485	0.04017	0.356456
1573	H	0.686357	0.085407	0.316923
1574	H	0.975293	0.062459	0.351471
1575	H	0.758401	0.061334	0.317094
1576	H	0.757263	0.017069	0.346776
1577	C	0.659638	0.323257	0.37409
1578	C	0.956838	0.274375	0.353949
1579	H	0.970645	0.997985	0.390622
1580	H	0.681359	0.310665	0.38796
1581	C	0.924819	0.291092	0.331537
1582	H	0.900427	0.298322	0.349011
1583	H	0.900386	0.259613	0.314173
1584	C	0.661542	0.266239	0.328737
1585	H	0.683561	0.255178	0.34521
1586	H	0.973055	0.23471	0.310756
1587	C	0.686811	0.044823	0.139369
1588	C	0.975271	0.032514	0.165184
1589	C	0.675754	0.994332	0.121835
1590	C	0.993067	0.278143	0.142347
1591	H	0.707737	0.001803	0.104935
1592	H	0.972508	0.314607	0.107991
1593	C	0.946934	0.27007	0.167349
1594	C	0.958838	0.319339	0.189955
1595	H	0.913995	0.259076	0.150747
1596	H	0.937149	0.238567	0.185374
1597	H	0.940725	0.023509	0.151188
1598	H	0.985733	0.066818	0.180311
1599	C	0.678736	0.998309	0.207362
1600	C	0.727425	0.010057	0.187112
1601	H	0.691665	0.032951	0.221243
1602	C	0.708263	0.294681	0.164831
1603	H	0.700873	0.263192	0.182303
1604	H	0.739818	0.301521	0.147418
1605	C	0.736119	0.056297	0.161846
1606	H	0.747661	0.089707	0.178237
1607	H	0.767545	0.065412	0.143713
1608	C	0.703323	0.158592	0.078492
1609	C	0.983254	0.074673	0.049963
1610	C	0.641183	0.059192	0.086196
1611	C	0.683518	0.07919	0.10997
1612	C	0.711188	0.132838	0.107593
1613	H	0.611094	0.024535	0.09037
1614	C	0.703205	0.205529	0.082482
1615	C	0.707036	0.23694	0.052851
1616	C	0.678595	0.262217	0.05238
1617	C	0.972532	0.241112	0.078721
1618	C	0.986411	0.237615	0.114196
1619	H	0.941983	0.245359	0.076818
1620	O	0.745257	0.16072	0.13309
1621	O	0.738295	0.241907	0.025289
1622	H	0.727168	0.154267	0.155922
1623	H	0.717726	0.228511	0.50375
1624	C	0.839377	0.203581	0.412572
1625	C	0.869326	0.209391	0.381609
1626	C	0.922586	0.234467	0.382508
1627	C	0.938865	0.240067	0.418408
1628	C	0.919368	0.261346	0.443743
1629	C	0.865749	0.23631	0.441964
1630	H	0.852818	0.193019	0.358054
1631	H	0.973406	0.243977	0.421742
1632	C	0.792215	0.156746	0.416656
1633	C	0.760738	0.129429	0.387056
1634	C	0.736538	0.075814	0.38572
1635	C	0.756918	0.057092	0.411937
1636	C	0.760794	0.074351	0.44752
1637	C	0.785462	0.127629	0.448053
1638	H	0.753069	0.022428	0.409544
1639	H	0.800782	0.144807	0.471675
1640	O	0.83846	0.242496	0.468221
1641	O	0.755045	0.155957	0.360249
1642	H	0.844894	0.230215	0.490622
1643	H	0.768519	0.14955	0.338264
1644	C	0.794634	0.296157	0.245295
1645	C	0.790882	0.985648	0.214762
1646	C	0.766438	0.014512	0.215842
1647	C	0.758495	0.359501	0.251865
1648	C	0.736435	0.318171	0.27663
1649	C	0.761345	0.289485	0.274557
1650	H	0.807179	0.985208	0.191111
1651	H	0.754007	0.389746	0.255474
1652	C	0.841519	0.296088	0.249445
1653	C	0.86924	0.29171	0.219924
1654	C	0.922945	0.320101	0.2192
1655	C	0.941178	0.35978	0.245183
1656	C	0.926365	0.013762	0.280681
1657	C	0.873068	0.985614	0.280993
1658	H	0.976015	0.390275	0.242996
1659	H	0.855569	0.983932	0.304557
1660	O	0.754602	0.25567	0.300465
1661	O	0.843102	0.259999	0.192738
1662	H	0.766841	0.274167	0.322999
1663	H	0.850387	0.280209	0.170944
1664	C	0.954152	0.298326	0.973108
1665	C	0.966961	0.265899	0.498312
1666	C	0.671381	0.004602	0.955482
1667	C	0.720273	0.040289	0.975725
1668	H	0.996961	0.028813	0.938851
1669	H	0.68386	0.315895	0.941396
1670	C	0.728303	0.002303	0.500456
1671	C	0.679045	0.298414	0.523158
1672	H	0.739518	0.313764	0.983764
1673	H	0.75973	0.024082	0.518448
1674	H	0.976448	0.240999	0.983588
1675	H	0.932792	0.241483	0.513476
1676	C	0.666754	0.00331	0.540859
1677	C	0.988159	0.040189	0.521099
1678	H	0.69863	0.026992	0.557434
1679	H	0.965668	0.315098	0.554766
1680	C	0.703739	0.072298	0.498536
1681	H	0.735252	0.096406	0.51593
1682	H	0.696901	0.096969	0.981326
1683	C	0.942185	0.002576	0.495908
1684	H	0.908804	0.313776	0.512342
1685	H	0.932882	0.02472	0.978016
1686	C	0.698968	0.315626	0.806059
1687	C	0.73316	0.026961	0.831633
1688	C	0.659664	0.326588	0.788614
1689	C	0.959598	0.00654	0.808734
1690	H	0.968915	0.294547	0.771925
1691	H	0.683983	0.026897	0.774483
1692	C	0.663907	0.052509	0.833629
1693	C	0.700485	0.04017	0.856456
1694	H	0.686358	0.085407	0.81692
1695	H	0.975294	0.062459	0.851471
1696	H	0.758402	0.061334	0.817094
1697	H	0.757264	0.017069	0.846776
1698	C	0.659636	0.323257	0.87409
1699	C	0.956839	0.274375	0.853946
1700	H	0.970646	0.997984	0.890622
1701	H	0.68136	0.310665	0.88796
1702	C	0.924817	0.291092	0.831537
1703	H	0.900424	0.298322	0.849011
1704	H	0.900383	0.259613	0.81417
1705	C	0.661542	0.266239	0.828737
1706	H	0.683558	0.255178	0.84521
1707	H	0.973052	0.23471	0.810753
1708	C	0.686812	0.044823	0.639367
1709	C	0.975272	0.032514	0.665185
1710	C	0.675754	0.994331	0.621835
1711	C	0.993068	0.278143	0.642347
1712	H	0.707734	0.001803	0.604934
1713	H	0.972508	0.314607	0.607991
1714	C	0.946935	0.27007	0.667348
1715	C	0.958839	0.319339	0.689954
1716	H	0.913993	0.259076	0.650746
1717	H	0.93715	0.238567	0.685374
1718	H	0.940725	0.023509	0.651189
1719	H	0.985734	0.066818	0.680311
1720	C	0.678736	0.998309	0.707361
1721	C	0.727425	0.010057	0.687113
1722	H	0.691663	0.032951	0.721242
1723	C	0.708264	0.294681	0.66483
1724	H	0.700874	0.263192	0.682301
1725	H	0.739818	0.301521	0.647417
1726	C	0.736119	0.056297	0.661845
1727	H	0.747661	0.089707	0.678236
1728	H	0.767545	0.065412	0.643712
1729	C	0.703323	0.158592	0.578493
1730	C	0.983251	0.074673	0.549962
1731	C	0.641184	0.059192	0.586196
1732	C	0.683519	0.07919	0.60997
1733	C	0.711189	0.132838	0.607594
1734	H	0.611091	0.024535	0.59037
1735	C	0.703202	0.205529	0.582483
1736	C	0.707036	0.23694	0.552851
1737	C	0.678596	0.262217	0.552379
1738	C	0.972532	0.241112	0.578722
1739	C	0.986412	0.237615	0.614195
1740	H	0.941983	0.245358	0.576818
1741	O	0.745258	0.16072	0.633088
1742	O	0.738296	0.241907	0.525289
1743	H	0.727165	0.154267	0.655921
1744	H	0.717725	0.228511	0.003751
1745	C	0.839377	0.203581	0.912569
1746	C	0.869326	0.20939	0.881609
1747	C	0.922587	0.234467	0.882508
1748	C	0.938865	0.240067	0.918408
1749	C	0.919369	0.261346	0.943743
1750	C	0.865749	0.23631	0.941964
1751	H	0.852819	0.193019	0.858054
1752	H	0.973406	0.243977	0.921742
1753	C	0.792216	0.156746	0.916656
1754	C	0.760738	0.129429	0.887053
1755	C	0.736539	0.075814	0.885717
1756	C	0.756918	0.057092	0.911934
1757	C	0.760794	0.074351	0.94752
1758	C	0.785463	0.127629	0.948053
1759	H	0.75307	0.022428	0.909545
1760	H	0.800779	0.144807	0.971673
1761	O	0.838461	0.242496	0.968221
1762	O	0.755046	0.155957	0.860249
1763	H	0.844895	0.230215	0.990619
1764	H	0.768516	0.14955	0.838265
1765	C	0.794635	0.296157	0.745294
1766	C	0.790884	0.985651	0.714763
1767	C	0.766439	0.014513	0.715841
1768	C	0.758492	0.359501	0.751863
1769	C	0.736432	0.318171	0.77663
1770	C	0.761346	0.289485	0.774555
1771	H	0.807179	0.985208	0.691111
1772	H	0.754008	0.389745	0.755475
1773	C	0.841519	0.296088	0.749444
1774	C	0.86924	0.29171	0.719924
1775	C	0.922946	0.320101	0.719199
1776	C	0.941179	0.35978	0.745184
1777	C	0.926362	0.013762	0.780681
1778	C	0.873068	0.985613	0.780994
1779	H	0.976012	0.390274	0.742994
1780	H	0.855566	0.983931	0.804557
1781	O	0.754603	0.255669	0.800463
1782	O	0.8431	0.259999	0.692736
1783	H	0.766839	0.274167	0.822999
1784	H	0.850387	0.280209	0.670943
1785	C	0.954153	0.631585	0.473012
1786	C	0.966977	0.599183	0.998223
1787	C	0.671311	0.337576	0.455444
1788	C	0.720206	0.373535	0.475556
1789	H	0.996817	0.361686	0.438795
1790	H	0.683881	0.649149	0.441329
1791	C	0.728365	0.335757	0.000447
1792	C	0.679051	0.631721	0.023078
1793	H	0.739563	0.647092	0.4837
1794	H	0.759796	0.357688	0.018399
1795	H	0.976482	0.574297	0.4835
1796	H	0.932804	0.574752	0.01338
1797	C	0.666941	0.336993	0.040821
1798	C	0.98807	0.37356	0.020863
1799	H	0.698789	0.360894	0.057399
1800	H	0.965686	0.648429	0.054691
1801	C	0.703619	0.405624	0.998247
1802	H	0.735125	0.429879	0.0156
1803	H	0.696711	0.43016	0.480944
1804	C	0.942097	0.335779	0.995791
1805	H	0.908796	0.64701	0.012245
1806	H	0.932711	0.357782	0.477821
1807	C	0.698946	0.648943	0.306008
1808	C	0.731165	0.360811	0.331412
1809	C	0.659652	0.659925	0.288569
1810	C	0.957116	0.339776	0.308974
1811	H	0.968886	0.627883	0.271882
1812	H	0.681431	0.360653	0.2746
1813	C	0.661536	0.385811	0.333919
1814	C	0.698608	0.373773	0.356517
1815	H	0.683736	0.418859	0.317288
1816	H	0.972909	0.395509	0.351948
1817	H	0.756159	0.395287	0.316894
1818	H	0.755529	0.350974	0.346267
1819	C	0.659625	0.656584	0.374031
1820	C	0.956805	0.607695	0.353885
1821	H	0.968889	0.331218	0.390814
1822	H	0.681329	0.643979	0.387899
1823	C	0.924803	0.62444	0.331487
1824	H	0.900416	0.631668	0.348969
1825	H	0.900364	0.592969	0.314117
1826	C	0.661513	0.599555	0.328681
1827	H	0.683522	0.588486	0.345157
1828	H	0.973025	0.568031	0.310695
1829	C	0.68382	0.377438	0.139428
1830	C	0.971905	0.364699	0.164964
1831	C	0.673106	0.327043	0.121963
1832	C	0.993012	0.611491	0.142308
1833	H	0.705231	0.334851	0.10518
1834	H	0.972477	0.647945	0.107935
1835	C	0.946904	0.603441	0.167319
1836	C	0.958841	0.652724	0.189914
1837	H	0.91396	0.592451	0.150723
1838	H	0.937118	0.571943	0.185349
1839	H	0.937443	0.355175	0.150634
1840	H	0.981741	0.39896	0.179953
1841	C	0.675989	0.33129	0.207424
1842	C	0.724906	0.343637	0.18723
1843	H	0.688546	0.365823	0.221267
1844	C	0.708215	0.628004	0.164792
1845	H	0.700811	0.596514	0.182271
1846	H	0.739763	0.634818	0.14738
1847	C	0.733155	0.389599	0.161989
1848	H	0.744196	0.422873	0.178419
1849	H	0.764744	0.399106	0.143931
1850	C	0.702665	0.491632	0.078421
1851	C	0.982743	0.407994	0.049512
1852	C	0.639475	0.392164	0.085643
1853	C	0.681109	0.411921	0.109991
1854	C	0.709606	0.465514	0.107662
1855	H	0.609332	0.357433	0.089461
1856	C	0.702959	0.538756	0.082443
1857	C	0.706943	0.570239	0.052826
1858	C	0.678538	0.595541	0.052326
1859	C	0.972439	0.574463	0.078653
1860	C	0.986279	0.570971	0.114139
1861	H	0.941884	0.578698	0.076729
1862	O	0.743642	0.49304	0.133276
1863	O	0.738352	0.575285	0.025347
1864	H	0.725352	0.487055	0.155982
1865	H	0.71793	0.562098	0.503726
1866	C	0.839294	0.536841	0.412465
1867	C	0.869232	0.542642	0.381505
1868	C	0.922511	0.567749	0.382412
1869	C	0.938808	0.573332	0.418307
1870	C	0.919322	0.594595	0.443657
1871	C	0.865687	0.569521	0.441884
1872	H	0.852678	0.526287	0.35795
1873	H	0.973352	0.577256	0.42163
1874	C	0.79208	0.490036	0.416512
1875	C	0.760166	0.462935	0.387003
1876	C	0.735164	0.409262	0.385712
1877	C	0.755984	0.39038	0.411492
1878	C	0.760542	0.407482	0.447184
1879	C	0.785471	0.460764	0.447808
1880	H	0.752091	0.355727	0.408846
1881	H	0.801171	0.47781	0.47139
1882	O	0.838394	0.575626	0.468178
1883	O	0.754766	0.48963	0.360185
1884	H	0.844817	0.563266	0.490542
1885	H	0.767773	0.482759	0.338152
1886	C	0.794632	0.629494	0.245266
1887	C	0.789673	0.321067	0.214687
1888	C	0.764518	0.34924	0.215755
1889	C	0.758477	0.69282	0.251824
1890	C	0.736408	0.651485	0.276584
1891	C	0.761341	0.622818	0.274525
1892	H	0.806532	0.321237	0.191147
1893	H	0.753997	0.723067	0.255435
1894	C	0.841527	0.629445	0.24942
1895	C	0.869248	0.625068	0.2199
1896	C	0.92295	0.653486	0.219162
1897	C	0.941187	0.693158	0.245151
1898	C	0.923473	0.346296	0.280769
1899	C	0.870159	0.317867	0.281066
1900	H	0.976025	0.723649	0.242963
1901	H	0.852651	0.316173	0.304629
1902	O	0.754607	0.589015	0.300441
1903	O	0.843106	0.593341	0.192724
1904	H	0.76684	0.607518	0.322975
1905	H	0.850369	0.613541	0.170927
1906	C	0.954153	0.631584	0.973012
1907	C	0.966974	0.599183	0.498224
1908	C	0.671308	0.337575	0.955442
1909	C	0.720206	0.373535	0.975556
1910	H	0.996818	0.361686	0.938795
1911	H	0.683883	0.649152	0.941329
1912	C	0.728366	0.335757	0.500446
1913	C	0.679051	0.63172	0.523078
1914	H	0.739563	0.647091	0.9837
1915	H	0.759797	0.357688	0.5184
1916	H	0.976482	0.574296	0.983497
1917	H	0.932806	0.574755	0.51338
1918	C	0.666941	0.336993	0.540819
1919	C	0.988071	0.37356	0.520862
1920	H	0.69879	0.360894	0.557399
1921	H	0.965688	0.648432	0.554692
1922	C	0.703619	0.405624	0.498248
1923	H	0.735125	0.429879	0.515599
1924	H	0.696711	0.430159	0.980945
1925	C	0.9421	0.335779	0.495791
1926	H	0.908796	0.647009	0.512243
1927	H	0.932711	0.357782	0.977821
1928	C	0.698943	0.648942	0.806008
1929	C	0.731165	0.360811	0.831412
1930	C	0.659649	0.659925	0.788569
1931	C	0.957114	0.339776	0.808974
1932	H	0.968883	0.627883	0.771882
1933	H	0.681428	0.360653	0.7746
1934	C	0.661537	0.38581	0.833919
1935	C	0.698606	0.373773	0.856517
1936	H	0.683739	0.418862	0.817288
1937	H	0.972909	0.395508	0.851948
1938	H	0.756159	0.395287	0.816894
1939	H	0.75553	0.350974	0.846267
1940	C	0.659622	0.656583	0.874031
1941	C	0.956807	0.607698	0.853885
1942	H	0.968886	0.331217	0.890814
1943	H	0.68133	0.643979	0.887899
1944	C	0.924804	0.62444	0.831487
1945	H	0.900418	0.631671	0.848969
1946	H	0.900364	0.592968	0.814117
1947	C	0.66151	0.599554	0.828681
1948	H	0.683524	0.588489	0.845154
1949	H	0.973022	0.56803	0.810695
1950	C	0.683817	0.377437	0.639426
1951	C	0.971906	0.364699	0.664963
1952	C	0.673107	0.327043	0.621963
1953	C	0.993014	0.611494	0.642307
1954	H	0.705231	0.334851	0.60518
1955	H	0.972477	0.647944	0.607935
1956	C	0.946904	0.60344	0.667319
1957	C	0.958841	0.652723	0.689914
1958	H	0.913957	0.59245	0.650722
1959	H	0.937118	0.571942	0.685347
1960	H	0.937443	0.355175	0.650634
1961	H	0.981743	0.398963	0.679951
1962	C	0.67599	0.331289	0.707422
1963	C	0.724906	0.343637	0.68723
1964	H	0.688547	0.365823	0.721266
1965	C	0.708215	0.628003	0.664793
1966	H	0.700813	0.596517	0.682269
1967	H	0.739763	0.634818	0.64738
1968	C	0.733155	0.389599	0.661989
1969	H	0.744193	0.422872	0.678417
1970	H	0.764746	0.399109	0.643931
1971	C	0.702665	0.491631	0.578421
1972	C	0.982743	0.407993	0.549512
1973	C	0.639472	0.392163	0.585641
1974	C	0.681109	0.41192	0.609992
1975	C	0.709603	0.465514	0.60766
1976	H	0.609333	0.357433	0.589461
1977	C	0.702959	0.538755	0.582443
1978	C	0.706943	0.570238	0.552825
1979	C	0.678538	0.595541	0.552326
1980	C	0.972439	0.574462	0.578653
1981	C	0.986279	0.57097	0.614139
1982	H	0.941885	0.578697	0.576727
1983	O	0.743639	0.493039	0.633275
1984	O	0.738354	0.575288	0.525348
1985	H	0.725353	0.487054	0.655982
1986	H	0.71793	0.562099	0.003727
1987	C	0.839294	0.53684	0.912465
1988	C	0.869235	0.542645	0.881503
1989	C	0.922511	0.567748	0.882409
1990	C	0.938805	0.573331	0.918307
1991	C	0.919319	0.594594	0.943657
1992	C	0.865689	0.569524	0.941884
1993	H	0.852675	0.526286	0.85795
1994	H	0.973353	0.577255	0.92163
1995	C	0.792082	0.490039	0.916512
1996	C	0.760163	0.462934	0.887003
1997	C	0.735166	0.409265	0.885712
1998	C	0.755981	0.390379	0.911492
1999	C	0.760542	0.407482	0.947184
2000	C	0.785473	0.460767	0.947808
2001	H	0.752091	0.355727	0.908846
2002	H	0.801168	0.47781	0.97139
2003	O	0.838396	0.575629	0.968176
2004	O	0.754766	0.489629	0.860185
2005	H	0.844817	0.563265	0.990542
2006	H	0.767774	0.482758	0.838153
2007	C	0.794633	0.629493	0.745264
2008	C	0.78967	0.321067	0.714686
2009	C	0.764518	0.34924	0.715755
2010	C	0.758477	0.692819	0.751823
2011	C	0.736408	0.651484	0.776584
2012	C	0.761341	0.622818	0.774525
2013	H	0.806532	0.321237	0.691146
2014	H	0.753998	0.723066	0.755435
2015	C	0.841527	0.629445	0.74942
2016	C	0.869245	0.625067	0.7199
2017	C	0.922949	0.653489	0.719161
2018	C	0.941184	0.693157	0.74515
2019	C	0.92347	0.346296	0.78077
2020	C	0.87016	0.317867	0.781066
2021	H	0.976025	0.723648	0.742962
2022	H	0.852652	0.316173	0.804629
2023	O	0.754608	0.589015	0.800441
2024	O	0.843106	0.59334	0.692722
2025	H	0.766842	0.607521	0.822973
2026	H	0.850369	0.61354	0.670927
2027	C	0.954208	0.965169	0.473086
2028	C	0.966881	0.932554	0.998237
2029	C	0.671333	0.670844	0.455362
2030	C	0.720245	0.706851	0.475458
2031	H	0.99684	0.694948	0.438712
2032	H	0.683897	0.983	0.441369
2033	C	0.72839	0.669076	0.000371
2034	C	0.678948	0.964889	0.023097
2035	H	0.739413	0.980368	0.48367
2036	H	0.759812	0.691014	0.01833
2037	H	0.976326	0.907626	0.483516
2038	H	0.932711	0.908156	0.013417
2039	C	0.666954	0.670296	0.040735
2040	C	0.988063	0.706814	0.020751
2041	H	0.698804	0.694206	0.057312
2042	H	0.965392	0.981446	0.054811
2043	C	0.703635	0.738911	0.998136
2044	H	0.735139	0.763171	0.015487
2045	H	0.696732	0.76344	0.480822
2046	C	0.942087	0.669022	0.99569
2047	H	0.90882	0.9805	0.012388
2048	H	0.932691	0.691017	0.477722
2049	C	0.701039	0.981724	0.306248
2050	C	0.731158	0.694119	0.331356
2051	C	0.661981	0.992909	0.288555
2052	C	0.957118	0.673134	0.308934
2053	H	0.971155	0.96092	0.271863
2054	H	0.681419	0.693984	0.274552
2055	C	0.661562	0.719166	0.333877
2056	C	0.698626	0.70711	0.356461
2057	H	0.683776	0.752222	0.317248
2058	H	0.972946	0.728872	0.351911
2059	H	0.756169	0.72859	0.31684
2060	H	0.755508	0.684259	0.346211
2061	C	0.661284	0.989747	0.374028
2062	C	0.958305	0.940896	0.353901
2063	H	0.968866	0.66454	0.390748
2064	H	0.682811	0.976982	0.388024
2065	C	0.926822	0.957946	0.331244
2066	H	0.902467	0.965444	0.348555
2067	H	0.902382	0.926538	0.313826
2068	C	0.663126	0.932471	0.328937
2069	H	0.68488	0.921248	0.345568
2070	H	0.974657	0.900947	0.310951
2071	C	0.683821	0.710767	0.13936
2072	C	0.971927	0.698076	0.164907
2073	C	0.673078	0.660372	0.121907
2074	C	0.99499	0.945244	0.142197
2075	H	0.705195	0.66816	0.105121
2076	H	0.9753	0.982242	0.107864
2077	C	0.949178	0.937611	0.167247
2078	C	0.961744	0.986887	0.18997
2079	H	0.91636	0.927105	0.150637
2080	H	0.939045	0.905937	0.185182
2081	H	0.937466	0.68857	0.150581
2082	H	0.98179	0.732352	0.179888
2083	C	0.675989	0.664664	0.207382
2084	C	0.724891	0.676968	0.187187
2085	H	0.688561	0.699207	0.221219
2086	C	0.710103	0.961047	0.164601
2087	H	0.702267	0.929343	0.181987
2088	H	0.741466	0.967472	0.147124
2089	C	0.733156	0.722917	0.161929
2090	H	0.744211	0.756198	0.178355
2091	H	0.764742	0.732405	0.143874
2092	C	0.702993	0.824822	0.078095
2093	C	0.982645	0.741191	0.049381
2094	C	0.639449	0.725444	0.08554
2095	C	0.681122	0.745182	0.109864
2096	C	0.709927	0.798731	0.107358
2097	H	0.60927	0.690751	0.089403
2098	C	0.70321	0.871867	0.082129
2099	C	0.707012	0.903373	0.052574
2100	C	0.678563	0.928649	0.052239
2101	C	0.972757	0.907728	0.078777
2102	C	0.987068	0.904311	0.114124
2103	H	0.942293	0.912155	0.07716
2104	O	0.744068	0.826271	0.132919
2105	O	0.738347	0.908505	0.025029
2106	H	0.725883	0.820369	0.155666
2107	H	0.717843	0.895269	0.503452
2108	C	0.839767	0.870357	0.412249
2109	C	0.869946	0.876406	0.381345
2110	C	0.923271	0.901337	0.382449
2111	C	0.939243	0.906961	0.418421
2112	C	0.919569	0.928235	0.44362
2113	C	0.865948	0.903012	0.441726
2114	H	0.853482	0.860213	0.357728
2115	H	0.973734	0.910832	0.42195
2116	C	0.792564	0.823451	0.416261
2117	C	0.760609	0.796346	0.386765
2118	C	0.735263	0.742644	0.38561
2119	C	0.756003	0.723713	0.411406
2120	C	0.760562	0.740864	0.447074
2121	C	0.785641	0.794183	0.44764
2122	H	0.752043	0.689031	0.408787
2123	H	0.801288	0.811241	0.471225
2124	O	0.83849	0.908963	0.467976
2125	O	0.755256	0.823038	0.359929
2126	H	0.844968	0.896719	0.490374
2127	H	0.768284	0.816129	0.337923
2128	C	0.796693	0.96164	0.245578
2129	C	0.789651	0.654384	0.214651
2130	C	0.7645	0.682558	0.215714
2131	C	0.760718	0.02506	0.251972
2132	C	0.738611	0.983943	0.27692
2133	C	0.763836	0.955502	0.275067
2134	H	0.806514	0.654556	0.191112
2135	H	0.756587	0.055516	0.255579
2136	C	0.844378	0.963101	0.249547
2137	C	0.872221	0.958772	0.220086
2138	C	0.925899	0.98766	0.219183
2139	C	0.944225	0.027288	0.245168
2140	C	0.92348	0.679671	0.280737
2141	C	0.870168	0.651241	0.281036
2142	H	0.979236	0.057569	0.243091
2143	H	0.852658	0.64954	0.3046
2144	O	0.757871	0.922472	0.301407
2145	O	0.846261	0.926561	0.193105
2146	H	0.769659	0.941429	0.32381
2147	H	0.852886	0.946539	0.171255
2148	C	0.954205	0.965169	0.973086
2149	C	0.966881	0.932553	0.498237
2150	C	0.671332	0.670847	0.955359
2151	C	0.720246	0.70685	0.975458
2152	H	0.996841	0.694948	0.938712
2153	H	0.683896	0.982999	0.941369
2154	C	0.728392	0.669079	0.500371
2155	C	0.678948	0.964888	0.523097
2156	H	0.739413	0.980367	0.983671
2157	H	0.759812	0.691013	0.51833
2158	H	0.976328	0.907629	0.983516
2159	H	0.932712	0.908155	0.513417
2160	C	0.666951	0.670295	0.540733
2161	C	0.988065	0.706817	0.52075
2162	H	0.698803	0.694209	0.557311
2163	H	0.965393	0.981446	0.554809
2164	C	0.703635	0.738911	0.498136
2165	H	0.735139	0.76317	0.515487
2166	H	0.696732	0.76344	0.980822
2167	C	0.942087	0.669023	0.495692
2168	H	0.908822	0.980503	0.512387
2169	H	0.932688	0.691016	0.97772
2170	C	0.701041	0.981727	0.806248
2171	C	0.731158	0.694118	0.831356
2172	C	0.661981	0.992908	0.788553
2173	C	0.957118	0.673133	0.808934
2174	H	0.971156	0.960919	0.771861
2175	H	0.681419	0.693983	0.774552
2176	C	0.661561	0.719165	0.833874
2177	C	0.698623	0.707109	0.856461
2178	H	0.683776	0.752221	0.817248
2179	H	0.972948	0.728875	0.851911
2180	H	0.756166	0.728589	0.816838
2181	H	0.75551	0.684262	0.846211
2182	C	0.661284	0.989747	0.874029
2183	C	0.958302	0.940895	0.853898
2184	H	0.968866	0.664539	0.890748
2185	H	0.682811	0.976981	0.888024
2186	C	0.926822	0.957945	0.831244
2187	H	0.902464	0.965443	0.848555
2188	H	0.902379	0.926537	0.813826
2189	C	0.663126	0.93247	0.828937
2190	H	0.68488	0.921247	0.845565
2191	H	0.974654	0.900946	0.810951
2192	C	0.683823	0.71077	0.639359
2193	C	0.971924	0.698076	0.664907
2194	C	0.673078	0.660372	0.621907
2195	C	0.994991	0.945243	0.642197
2196	H	0.705197	0.668163	0.605121
2197	H	0.9753	0.982242	0.607863
2198	C	0.949178	0.93761	0.667246
2199	C	0.961745	0.986886	0.68997
2200	H	0.91636	0.927105	0.650637
2201	H	0.939042	0.905936	0.685182
2202	H	0.937463	0.688569	0.650581
2203	H	0.98179	0.732352	0.679887
2204	C	0.675986	0.664663	0.707382
2205	C	0.724891	0.676967	0.687185
2206	H	0.688561	0.699206	0.721218
2207	C	0.710103	0.961047	0.6646
2208	H	0.702269	0.929346	0.681986
2209	H	0.741466	0.967471	0.647124
2210	C	0.733153	0.722916	0.661928
2211	H	0.744211	0.756197	0.678356
2212	H	0.764739	0.732404	0.643872
2213	C	0.702993	0.824821	0.578095
2214	C	0.982646	0.74119	0.549381
2215	C	0.639451	0.725447	0.58554
2216	C	0.681122	0.745181	0.609863
2217	C	0.709927	0.79873	0.607356
2218	H	0.60927	0.690751	0.589402
2219	C	0.703211	0.87187	0.582128
2220	C	0.707011	0.903372	0.552574
2221	C	0.678563	0.928648	0.552238
2222	C	0.972759	0.907731	0.578775
2223	C	0.987069	0.90431	0.614123
2224	H	0.942295	0.912158	0.577159
2225	O	0.744068	0.82627	0.632918
2226	O	0.738348	0.908508	0.525028
2227	H	0.725882	0.820368	0.655665
2228	H	0.717841	0.895266	0.003451
2229	C	0.839767	0.870357	0.912249
2230	C	0.869945	0.876409	0.881345
2231	C	0.923271	0.901336	0.882447
2232	C	0.939245	0.906964	0.918419
2233	C	0.919571	0.928238	0.94362
2234	C	0.865948	0.903011	0.941726
2235	H	0.853483	0.860212	0.857728
2236	H	0.973736	0.910835	0.92195
2237	C	0.792561	0.82345	0.916261
2238	C	0.760606	0.796345	0.886765
2239	C	0.73526	0.742643	0.88561
2240	C	0.756003	0.723712	0.911404
2241	C	0.760565	0.740867	0.947074
2242	C	0.785641	0.794183	0.947637
2243	H	0.752044	0.68903	0.908787
2244	H	0.80129	0.811244	0.971225
2245	O	0.83849	0.908962	0.967976
2246	O	0.755258	0.823041	0.859929
2247	H	0.844968	0.896718	0.990374
2248	H	0.768284	0.816129	0.837923
2249	C	0.796692	0.96164	0.745576
2250	C	0.789651	0.654383	0.714651
2251	C	0.764502	0.682561	0.715715
2252	C	0.760716	0.02506	0.751973
2253	C	0.73861	0.983942	0.776921
2254	C	0.763836	0.955501	0.775067
2255	H	0.806516	0.654559	0.691111
2256	H	0.756587	0.055516	0.755579
2257	C	0.844378	0.9631	0.749548
2258	C	0.872221	0.958771	0.720084
2259	C	0.925899	0.987659	0.719183
2260	C	0.944225	0.027289	0.745168
2261	C	0.92348	0.67967	0.780735
2262	C	0.870165	0.65124	0.781036
2263	H	0.979237	0.057569	0.74309
2264	H	0.852658	0.649539	0.8046
2265	O	0.757871	0.922471	0.801407
2266	O	0.846263	0.926564	0.693104
2267	H	0.76966	0.941432	0.82381
2268	H	0.852884	0.946539	0.671256
