data_C1728H864_2018-02-15_12:33:40
#******************************************
#
# CIF file created by Zeo++
# Zeo++ is an open source package to
# analyze microporous materials
#
#*******************************************

_cell_length_a		45.7922   
_cell_length_b		29.5524   
_cell_length_c		33.4504   
_cell_angle_alpha		90   
_cell_angle_beta		90   
_cell_angle_gamma		90   

_symmetry_space_group_name_H-M		'P1'
_symmetry_Int_Tables_number		1
_symmetry_cell_setting		Orthorhombic

loop_
_symmetry_equiv_pos_as_xyz
'+x,+y,+z'

loop_
_atom_site_label
_atom_site_type_symbol
_atom_site_fract_x
_atom_site_fract_y
_atom_site_fract_z
1	C	0.122334	0.08888	0.068291
2	C	0.096901	0.104543	0.04878
3	C	0.083251	0.08117	0.016813
4	C	0.098831	0.041672	0.337395
5	C	0.126927	0.029285	0.018506
6	C	0.138996	0.054793	0.050294
7	H	0.08908	0.018902	0.318812
8	H	0.156057	0.041439	0.066441
9	H	0.086782	0.131044	0.062364
10	C	0.140239	0.257302	0.068709
11	C	0.165684	0.241638	0.04917
12	C	0.179236	0.264795	0.016993
13	C	0.163616	0.304221	0.337487
14	C	0.135576	0.316646	0.018839
15	C	0.123455	0.291092	0.050496
16	H	0.173307	0.326917	0.318776
17	H	0.1064	0.304531	0.06658
18	H	0.175885	0.215307	0.062884
19	C	0.140013	0.255561	0.110891
20	C	0.165432	0.271301	0.130468
21	C	0.179151	0.247755	0.162292
22	C	0.16363	0.20817	0.174969
23	C	0.135571	0.19575	0.160346
24	C	0.123379	0.221441	0.128824
25	H	0.173438	0.185338	0.193439
26	H	0.106409	0.207969	0.112596
27	H	0.175546	0.297855	0.116958
28	C	0.122367	0.090374	0.110481
29	C	0.096978	0.074643	0.13013
30	C	0.083378	0.097927	0.162215
31	C	0.098983	0.137385	0.175023
32	C	0.127044	0.149713	0.160405
33	C	0.13907	0.124337	0.1286
34	H	0.089308	0.160078	0.19375
35	H	0.156115	0.137631	0.112378
36	H	0.086743	0.048364	0.116397
37	C	0.39016	0.25728	0.277224
38	C	0.415586	0.241513	0.296788
39	C	0.429174	0.264686	0.328943
40	C	0.413573	0.304114	0.008493
41	C	0.385487	0.316444	0.327338
42	C	0.373448	0.291111	0.295481
43	H	0.42326	0.326792	0.02722
44	H	0.356358	0.30435	0.27931
45	H	0.425824	0.21527	0.283002
46	C	0.372284	0.088548	0.277195
47	C	0.346869	0.104342	0.296767
48	C	0.333253	0.081132	0.328866
49	C	0.348821	0.041655	0.008359
50	C	0.376874	0.029098	0.327153
51	C	0.388931	0.054626	0.295434
52	H	0.339095	0.018988	0.027058
53	H	0.40601	0.041358	0.279273
54	H	0.336653	0.130592	0.282953
55	C	0.372304	0.090158	0.23499
56	C	0.346891	0.074416	0.215469
57	C	0.333196	0.097929	0.183607
58	C	0.348762	0.137466	0.170887
59	C	0.376833	0.149984	0.185386
60	C	0.388863	0.124439	0.217144
61	H	0.33901	0.160206	0.152279
62	H	0.405945	0.137619	0.233369
63	H	0.336767	0.047955	0.229107
64	C	0.390189	0.255666	0.235039
65	C	0.415588	0.27132	0.215437
66	C	0.429272	0.247818	0.183552
67	C	0.413693	0.208303	0.170817
68	C	0.385614	0.195883	0.185302
69	C	0.373697	0.221285	0.217233
70	H	0.423413	0.185571	0.152172
71	H	0.356504	0.208119	0.233268
72	H	0.425677	0.29792	0.228907
73	C	0.055619	0.083138	0.178302
74	C	0.04431	0.10289	0.213572
75	C	0.020604	0.084721	0.235255
76	C	0.007012	0.045278	0.219714
77	C	0.013839	0.025719	0.181574
78	C	0.038502	0.046507	0.16276
79	H	0.491977	0.030621	0.237978
80	H	0.044654	0.033659	0.136266
81	H	0.05576	0.127947	0.22748
82	C	0.206921	0.262513	0.178329
83	C	0.218177	0.242851	0.213661
84	C	0.241858	0.261086	0.235349
85	C	0.255423	0.30054	0.219787
86	C	0.248652	0.319988	0.181583
87	C	0.224062	0.299065	0.162703
88	H	0.270369	0.315324	0.238107
89	H	0.218044	0.311597	0.136022
90	H	0.206678	0.217867	0.227609
91	C	0.206966	0.249941	0.334205
92	C	0.218228	0.269609	0.29887
93	C	0.241825	0.251261	0.277072
94	C	0.255404	0.211825	0.292677
95	C	0.248658	0.192404	0.330895
96	C	0.224084	0.213342	0.016452
97	H	0.270299	0.196965	0.274328
98	H	0.218031	0.200709	0.043071
99	H	0.206719	0.294546	0.284898
100	C	0.055479	0.095934	0.334118
101	C	0.044214	0.076306	0.298774
102	C	0.020588	0.094601	0.276966
103	C	0.007071	0.134064	0.292637
104	C	0.013795	0.153441	0.330883
105	C	0.038348	0.132463	0.01644
106	H	0.492204	0.148991	0.274286
107	H	0.044345	0.144931	0.043151
108	H	0.055744	0.051386	0.284803
109	C	0.457036	0.262585	0.167489
110	C	0.468309	0.242943	0.132147
111	C	0.492005	0.261186	0.110413
112	C	0.505422	0.300752	0.125985
113	C	0.498692	0.320151	0.164216
114	C	0.474168	0.299124	0.18314
115	H	0.020253	0.315702	0.107592
116	H	0.468217	0.311519	0.209901
117	H	0.456796	0.217971	0.118216
118	C	0.305441	0.083134	0.167539
119	C	0.294172	0.102727	0.132177
120	C	0.270461	0.084582	0.110422
121	C	0.257031	0.04503	0.126032
122	C	0.263792	0.025562	0.164227
123	C	0.288337	0.046542	0.183137
124	H	0.242113	0.030188	0.107708
125	H	0.294349	0.034022	0.209823
126	H	0.305655	0.127793	0.118333
127	C	0.305517	0.096	0.01163
128	C	0.294236	0.076389	0.046981
129	C	0.270564	0.094569	0.068748
130	C	0.257035	0.134026	0.053102
131	C	0.263829	0.153531	0.014932
132	C	0.288436	0.132651	0.32941
133	H	0.242059	0.148788	0.071386
134	H	0.294555	0.145399	0.30286
135	H	0.305698	0.051333	0.060859
136	C	0.456914	0.249824	0.011699
137	C	0.468217	0.269537	0.046991
138	C	0.491857	0.251211	0.068709
139	C	0.505444	0.211789	0.053126
140	C	0.498642	0.192318	0.014945
141	C	0.474007	0.213176	0.329463
142	H	0.020449	0.197072	0.071399
143	H	0.467868	0.200384	0.302944
144	H	0.456768	0.294548	0.060955
145	C	0.122334	0.08888	0.401624
146	C	0.096901	0.104543	0.382114
147	C	0.083251	0.08117	0.350148
148	C	0.098831	0.041672	0.670729
149	C	0.126927	0.029285	0.35184
150	C	0.138996	0.054793	0.383627
151	H	0.08908	0.018902	0.652147
152	H	0.156057	0.041439	0.399776
153	H	0.086782	0.131044	0.395699
154	C	0.140239	0.257302	0.402042
155	C	0.165684	0.241638	0.382503
156	C	0.179236	0.264795	0.350327
157	C	0.163616	0.304221	0.670819
158	C	0.135576	0.316646	0.352172
159	C	0.123455	0.291092	0.38383
160	H	0.173307	0.326917	0.652108
161	H	0.1064	0.304531	0.399914
162	H	0.175885	0.215307	0.396219
163	C	0.140013	0.255561	0.444224
164	C	0.165432	0.271301	0.463802
165	C	0.179151	0.247755	0.495626
166	C	0.16363	0.20817	0.508304
167	C	0.135571	0.19575	0.49368
168	C	0.123379	0.221441	0.462158
169	H	0.173438	0.185338	0.526773
170	H	0.106409	0.207969	0.445928
171	H	0.175546	0.297855	0.450293
172	C	0.122367	0.090374	0.443815
173	C	0.096978	0.074643	0.463465
174	C	0.083378	0.097927	0.495548
175	C	0.098983	0.137385	0.508358
176	C	0.127044	0.149713	0.493739
177	C	0.13907	0.124337	0.461934
178	H	0.089308	0.160078	0.527084
179	H	0.156115	0.137631	0.44571
180	H	0.086743	0.048364	0.449731
181	C	0.39016	0.25728	0.610557
182	C	0.415586	0.241513	0.63012
183	C	0.429174	0.264686	0.662275
184	C	0.413573	0.304114	0.341828
185	C	0.385487	0.316444	0.660673
186	C	0.373448	0.291111	0.628814
187	H	0.42326	0.326792	0.360554
188	H	0.356358	0.30435	0.612644
189	H	0.425824	0.21527	0.616336
190	C	0.372284	0.088548	0.61053
191	C	0.346869	0.104342	0.630099
192	C	0.333253	0.081132	0.6622
193	C	0.348821	0.041655	0.341694
194	C	0.376874	0.029098	0.660487
195	C	0.388931	0.054626	0.628769
196	H	0.339095	0.018988	0.360393
197	H	0.40601	0.041358	0.612608
198	H	0.336653	0.130592	0.616288
199	C	0.372304	0.090158	0.568324
200	C	0.346891	0.074416	0.548803
201	C	0.333196	0.097929	0.516941
202	C	0.348762	0.137466	0.50422
203	C	0.376833	0.149984	0.51872
204	C	0.388863	0.124439	0.550477
205	H	0.33901	0.160206	0.485614
206	H	0.405945	0.137619	0.566701
207	H	0.336767	0.047955	0.562441
208	C	0.390189	0.255666	0.568372
209	C	0.415588	0.27132	0.54877
210	C	0.429272	0.247818	0.516884
211	C	0.413693	0.208303	0.504152
212	C	0.385614	0.195883	0.518636
213	C	0.373697	0.221285	0.550567
214	H	0.423413	0.185571	0.485506
215	H	0.356504	0.208119	0.566602
216	H	0.425677	0.29792	0.562241
217	C	0.055619	0.083138	0.511637
218	C	0.04431	0.10289	0.546905
219	C	0.020604	0.084721	0.56859
220	C	0.007012	0.045278	0.553048
221	C	0.013839	0.025719	0.514908
222	C	0.038502	0.046507	0.496095
223	H	0.491977	0.030621	0.571311
224	H	0.044654	0.033659	0.469599
225	H	0.05576	0.127947	0.560815
226	C	0.206921	0.262513	0.511661
227	C	0.218177	0.242851	0.546994
228	C	0.241858	0.261086	0.568683
229	C	0.255423	0.30054	0.55312
230	C	0.248652	0.319988	0.514917
231	C	0.224062	0.299065	0.496038
232	H	0.270369	0.315324	0.571442
233	H	0.218044	0.311597	0.469354
234	H	0.206678	0.217867	0.560943
235	C	0.206966	0.249941	0.667537
236	C	0.218228	0.269609	0.632204
237	C	0.241825	0.251261	0.610404
238	C	0.255404	0.211825	0.62601
239	C	0.248658	0.192404	0.66423
240	C	0.224084	0.213342	0.349786
241	H	0.270299	0.196965	0.607663
242	H	0.218031	0.200709	0.376405
243	H	0.206719	0.294546	0.618231
244	C	0.055479	0.095934	0.667453
245	C	0.044214	0.076306	0.632108
246	C	0.020588	0.094601	0.6103
247	C	0.007071	0.134064	0.625971
248	C	0.013795	0.153441	0.664218
249	C	0.038348	0.132463	0.349774
250	H	0.492204	0.148991	0.607618
251	H	0.044345	0.144931	0.376485
252	H	0.055744	0.051386	0.618138
253	C	0.457036	0.262585	0.500821
254	C	0.468309	0.242943	0.46548
255	C	0.492005	0.261186	0.443746
256	C	0.505422	0.300752	0.459318
257	C	0.498692	0.320151	0.497551
258	C	0.474168	0.299124	0.516474
259	H	0.020253	0.315702	0.440927
260	H	0.468217	0.311519	0.543233
261	H	0.456796	0.217971	0.451549
262	C	0.305441	0.083134	0.500872
263	C	0.294172	0.102727	0.46551
264	C	0.270461	0.084582	0.443755
265	C	0.257031	0.04503	0.459366
266	C	0.263792	0.025562	0.49756
267	C	0.288337	0.046542	0.516471
268	H	0.242113	0.030188	0.441043
269	H	0.294349	0.034022	0.543156
270	H	0.305655	0.127793	0.451665
271	C	0.305517	0.096	0.344964
272	C	0.294236	0.076389	0.380315
273	C	0.270564	0.094569	0.402081
274	C	0.257035	0.134026	0.386434
275	C	0.263829	0.153531	0.348267
276	C	0.288436	0.132651	0.662745
277	H	0.242059	0.148788	0.404721
278	H	0.294555	0.145399	0.636195
279	H	0.305698	0.051333	0.394192
280	C	0.456914	0.249824	0.345033
281	C	0.468217	0.269537	0.380324
282	C	0.491857	0.251211	0.402042
283	C	0.505444	0.211789	0.386461
284	C	0.498642	0.192318	0.348279
285	C	0.474007	0.213176	0.662798
286	H	0.020449	0.197072	0.404733
287	H	0.467868	0.200384	0.636276
288	H	0.456768	0.294548	0.394288
289	C	0.122334	0.08888	0.734959
290	C	0.096901	0.104543	0.715446
291	C	0.083251	0.08117	0.68348
292	C	0.098831	0.041672	0.004064
293	C	0.126927	0.029285	0.685175
294	C	0.138996	0.054793	0.716962
295	H	0.08908	0.018902	0.985479
296	H	0.156057	0.041439	0.733108
297	H	0.086782	0.131044	0.729031
298	C	0.140239	0.257302	0.735377
299	C	0.165684	0.241638	0.715838
300	C	0.179236	0.264795	0.683662
301	C	0.163616	0.304221	0.004154
302	C	0.135576	0.316646	0.685507
303	C	0.123455	0.291092	0.717165
304	H	0.173307	0.326917	0.985443
305	H	0.1064	0.304531	0.733249
306	H	0.175885	0.215307	0.729551
307	C	0.140013	0.255561	0.777559
308	C	0.165432	0.271301	0.797134
309	C	0.179151	0.247755	0.828961
310	C	0.16363	0.20817	0.841636
311	C	0.135571	0.19575	0.827014
312	C	0.123379	0.221441	0.79549
313	H	0.173438	0.185338	0.860105
314	H	0.106409	0.207969	0.779263
315	H	0.175546	0.297855	0.783625
316	C	0.122367	0.090374	0.77715
317	C	0.096978	0.074643	0.796797
318	C	0.083378	0.097927	0.828883
319	C	0.098983	0.137385	0.84169
320	C	0.127044	0.149713	0.827074
321	C	0.13907	0.124337	0.795269
322	H	0.089308	0.160078	0.860419
323	H	0.156115	0.137631	0.779045
324	H	0.086743	0.048364	0.783066
325	C	0.39016	0.25728	0.943892
326	C	0.415586	0.241513	0.963455
327	C	0.429174	0.264686	0.99561
328	C	0.413573	0.304114	0.67516
329	C	0.385487	0.316444	0.994008
330	C	0.373448	0.291111	0.962149
331	H	0.42326	0.326792	0.693886
332	H	0.356358	0.30435	0.945978
333	H	0.425824	0.21527	0.94967
334	C	0.372284	0.088548	0.943862
335	C	0.346869	0.104342	0.963434
336	C	0.333253	0.081132	0.995532
337	C	0.348821	0.041655	0.675025
338	C	0.376874	0.029098	0.993819
339	C	0.388931	0.054626	0.962101
340	H	0.339095	0.018988	0.693725
341	H	0.40601	0.041358	0.94594
342	H	0.336653	0.130592	0.94962
343	C	0.372304	0.090158	0.901656
344	C	0.346891	0.074416	0.882138
345	C	0.333196	0.097929	0.850276
346	C	0.348762	0.137466	0.837555
347	C	0.376833	0.149984	0.852054
348	C	0.388863	0.124439	0.883812
349	H	0.33901	0.160206	0.818946
350	H	0.405945	0.137619	0.900036
351	H	0.336767	0.047955	0.895776
352	C	0.390189	0.255666	0.901707
353	C	0.415588	0.27132	0.882105
354	C	0.429272	0.247818	0.850219
355	C	0.413693	0.208303	0.837484
356	C	0.385614	0.195883	0.851971
357	C	0.373697	0.221285	0.883902
358	H	0.423413	0.185571	0.818838
359	H	0.356504	0.208119	0.899934
360	H	0.425677	0.29792	0.895576
361	C	0.055619	0.083138	0.844969
362	C	0.04431	0.10289	0.880239
363	C	0.020604	0.084721	0.901922
364	C	0.007012	0.045278	0.88638
365	C	0.013839	0.025719	0.848243
366	C	0.038502	0.046507	0.829427
367	H	0.491977	0.030621	0.904646
368	H	0.044654	0.033659	0.802934
369	H	0.05576	0.127947	0.894147
370	C	0.206921	0.262513	0.844996
371	C	0.218177	0.242851	0.880329
372	C	0.241858	0.261086	0.902018
373	C	0.255423	0.30054	0.886455
374	C	0.248652	0.319988	0.848249
375	C	0.224062	0.299065	0.82937
376	H	0.270369	0.315324	0.904774
377	H	0.218044	0.311597	0.802689
378	H	0.206678	0.217867	0.894275
379	C	0.206966	0.249941	0.000872
380	C	0.218228	0.269609	0.965539
381	C	0.241825	0.251261	0.943739
382	C	0.255404	0.211825	0.959344
383	C	0.248658	0.192404	0.997562
384	C	0.224084	0.213342	0.683121
385	H	0.270299	0.196965	0.940995
386	H	0.218031	0.200709	0.709739
387	H	0.206719	0.294546	0.951566
388	C	0.055479	0.095934	0.000788
389	C	0.044214	0.076306	0.96544
390	C	0.020588	0.094601	0.943635
391	C	0.007071	0.134064	0.959306
392	C	0.013795	0.153441	0.99755
393	C	0.038348	0.132463	0.683106
394	H	0.492204	0.148991	0.940953
395	H	0.044345	0.144931	0.709817
396	H	0.055744	0.051386	0.95147
397	C	0.457036	0.262585	0.834156
398	C	0.468309	0.242943	0.798814
399	C	0.492005	0.261186	0.777081
400	C	0.505422	0.300752	0.792653
401	C	0.498692	0.320151	0.830883
402	C	0.474168	0.299124	0.849806
403	H	0.020253	0.315702	0.774259
404	H	0.468217	0.311519	0.876568
405	H	0.456796	0.217971	0.784883
406	C	0.305441	0.083134	0.834207
407	C	0.294172	0.102727	0.798844
408	C	0.270461	0.084582	0.77709
409	C	0.257031	0.04503	0.792701
410	C	0.263792	0.025562	0.830895
411	C	0.288337	0.046542	0.849803
412	H	0.242113	0.030188	0.774375
413	H	0.294349	0.034022	0.876491
414	H	0.305655	0.127793	0.785
415	C	0.305517	0.096	0.678299
416	C	0.294236	0.076389	0.71365
417	C	0.270564	0.094569	0.735416
418	C	0.257035	0.134026	0.719769
419	C	0.263829	0.153531	0.681599
420	C	0.288436	0.132651	0.996079
421	H	0.242059	0.148788	0.738053
422	H	0.294555	0.145399	0.96953
423	H	0.305698	0.051333	0.727527
424	C	0.456914	0.249824	0.678368
425	C	0.468217	0.269537	0.713659
426	C	0.491857	0.251211	0.735377
427	C	0.505444	0.211789	0.719793
428	C	0.498642	0.192318	0.681611
429	C	0.474007	0.213176	0.996133
430	H	0.020449	0.197072	0.738068
431	H	0.467868	0.200384	0.96961
432	H	0.456768	0.294548	0.727623
433	C	0.122334	0.422212	0.068291
434	C	0.096901	0.437876	0.04878
435	C	0.083251	0.414504	0.016813
436	C	0.098831	0.375004	0.337395
437	C	0.126927	0.36262	0.018506
438	C	0.138996	0.388127	0.050294
439	H	0.08908	0.352235	0.318812
440	H	0.156057	0.374771	0.066441
441	H	0.086782	0.464378	0.062364
442	C	0.140239	0.590635	0.068709
443	C	0.165684	0.574971	0.04917
444	C	0.179236	0.59813	0.016993
445	C	0.163616	0.637555	0.337487
446	C	0.135576	0.64998	0.018839
447	C	0.123455	0.624425	0.050496
448	H	0.173307	0.66025	0.318776
449	H	0.1064	0.637866	0.06658
450	H	0.175885	0.548642	0.062884
451	C	0.140013	0.588895	0.110891
452	C	0.165432	0.604633	0.130468
453	C	0.179151	0.581089	0.162292
454	C	0.16363	0.541505	0.174969
455	C	0.135571	0.529083	0.160346
456	C	0.123379	0.554776	0.128824
457	H	0.173438	0.518671	0.193439
458	H	0.106409	0.541302	0.112596
459	H	0.175546	0.63119	0.116958
460	C	0.122367	0.423708	0.110481
461	C	0.096978	0.407976	0.13013
462	C	0.083378	0.43126	0.162215
463	C	0.098983	0.470719	0.175023
464	C	0.127044	0.483046	0.160405
465	C	0.13907	0.457671	0.1286
466	H	0.089308	0.493411	0.19375
467	H	0.156115	0.470966	0.112378
468	H	0.086743	0.381698	0.116397
469	C	0.39016	0.590614	0.277224
470	C	0.415586	0.574846	0.296788
471	C	0.429174	0.598022	0.328943
472	C	0.413573	0.637446	0.008493
473	C	0.385487	0.649777	0.327338
474	C	0.373448	0.624446	0.295481
475	H	0.42326	0.660125	0.02722
476	H	0.356358	0.637683	0.27931
477	H	0.425824	0.548604	0.283002
478	C	0.372284	0.42188	0.277195
479	C	0.346869	0.437676	0.296767
480	C	0.333253	0.414467	0.328866
481	C	0.348821	0.374988	0.008359
482	C	0.376874	0.36243	0.327153
483	C	0.388931	0.387961	0.295434
484	H	0.339095	0.352323	0.027058
485	H	0.40601	0.37469	0.279273
486	H	0.336653	0.463924	0.282953
487	C	0.372304	0.423491	0.23499
488	C	0.346891	0.40775	0.215469
489	C	0.333196	0.431264	0.183607
490	C	0.348762	0.4708	0.170887
491	C	0.376833	0.483317	0.185386
492	C	0.388863	0.457773	0.217144
493	H	0.33901	0.493539	0.152279
494	H	0.405945	0.470953	0.233369
495	H	0.336767	0.381288	0.229107
496	C	0.390189	0.589	0.235039
497	C	0.415588	0.604654	0.215437
498	C	0.429272	0.58115	0.183552
499	C	0.413693	0.541637	0.170817
500	C	0.385614	0.529215	0.185302
501	C	0.373697	0.554617	0.217233
502	H	0.423413	0.518905	0.152172
503	H	0.356504	0.541451	0.233268
504	H	0.425677	0.631254	0.228907
505	C	0.055619	0.416473	0.178302
506	C	0.04431	0.436224	0.213572
507	C	0.020604	0.418053	0.235255
508	C	0.007012	0.378612	0.219714
509	C	0.013839	0.359053	0.181574
510	C	0.038502	0.37984	0.16276
511	H	0.491977	0.363953	0.237978
512	H	0.044654	0.366992	0.136266
513	H	0.05576	0.461282	0.22748
514	C	0.206921	0.595846	0.178329
515	C	0.218177	0.576186	0.213661
516	C	0.241858	0.594418	0.235349
517	C	0.255423	0.633873	0.219787
518	C	0.248652	0.653323	0.181583
519	C	0.224062	0.632398	0.162703
520	H	0.270369	0.648657	0.238107
521	H	0.218044	0.644931	0.136022
522	H	0.206678	0.5512	0.227609
523	C	0.206966	0.583275	0.334205
524	C	0.218228	0.602942	0.29887
525	C	0.241825	0.584595	0.277072
526	C	0.255404	0.54516	0.292677
527	C	0.248658	0.525736	0.330895
528	C	0.224084	0.546676	0.016452
529	H	0.270299	0.530298	0.274328
530	H	0.218031	0.534044	0.043071
531	H	0.206719	0.62788	0.284898
532	C	0.055479	0.429267	0.334118
533	C	0.044214	0.409638	0.298774
534	C	0.020588	0.427934	0.276966
535	C	0.007071	0.467396	0.292637
536	C	0.013795	0.486775	0.330883
537	C	0.038348	0.465796	0.01644
538	H	0.492204	0.482326	0.274286
539	H	0.044345	0.478265	0.043151
540	H	0.055744	0.384719	0.284803
541	C	0.457036	0.59592	0.167489
542	C	0.468309	0.576277	0.132147
543	C	0.492005	0.594519	0.110413
544	C	0.505422	0.634086	0.125985
545	C	0.498692	0.653486	0.164216
546	C	0.474168	0.632459	0.18314
547	H	0.020253	0.649036	0.107592
548	H	0.468217	0.644854	0.209901
549	H	0.456796	0.551305	0.118216
550	C	0.305441	0.416466	0.167539
551	C	0.294172	0.436062	0.132177
552	C	0.270461	0.417915	0.110422
553	C	0.257031	0.378365	0.126032
554	C	0.263792	0.358898	0.164227
555	C	0.288337	0.379877	0.183137
556	H	0.242113	0.363523	0.107708
557	H	0.294349	0.367357	0.209823
558	H	0.305655	0.461126	0.118333
559	C	0.305517	0.429335	0.01163
560	C	0.294236	0.409722	0.046981
561	C	0.270564	0.427904	0.068748
562	C	0.257035	0.467359	0.053102
563	C	0.263829	0.486867	0.014932
564	C	0.288436	0.465985	0.32941
565	H	0.242059	0.482122	0.071386
566	H	0.294555	0.478732	0.30286
567	H	0.305698	0.384669	0.060859
568	C	0.456914	0.583156	0.011699
569	C	0.468217	0.602871	0.046991
570	C	0.491857	0.584544	0.068709
571	C	0.505444	0.545122	0.053126
572	C	0.498642	0.525652	0.014945
573	C	0.474007	0.54651	0.329463
574	H	0.020449	0.530406	0.071399
575	H	0.467868	0.533719	0.302944
576	H	0.456768	0.62788	0.060955
577	C	0.122334	0.422212	0.401624
578	C	0.096901	0.437876	0.382114
579	C	0.083251	0.414504	0.350148
580	C	0.098831	0.375004	0.670729
581	C	0.126927	0.36262	0.35184
582	C	0.138996	0.388127	0.383627
583	H	0.08908	0.352235	0.652147
584	H	0.156057	0.374771	0.399776
585	H	0.086782	0.464378	0.395699
586	C	0.140239	0.590635	0.402042
587	C	0.165684	0.574971	0.382503
588	C	0.179236	0.59813	0.350327
589	C	0.163616	0.637555	0.670819
590	C	0.135576	0.64998	0.352172
591	C	0.123455	0.624425	0.38383
592	H	0.173307	0.66025	0.652108
593	H	0.1064	0.637866	0.399914
594	H	0.175885	0.548642	0.396219
595	C	0.140013	0.588895	0.444224
596	C	0.165432	0.604633	0.463802
597	C	0.179151	0.581089	0.495626
598	C	0.16363	0.541505	0.508304
599	C	0.135571	0.529083	0.49368
600	C	0.123379	0.554776	0.462158
601	H	0.173438	0.518671	0.526773
602	H	0.106409	0.541302	0.445928
603	H	0.175546	0.63119	0.450293
604	C	0.122367	0.423708	0.443815
605	C	0.096978	0.407976	0.463465
606	C	0.083378	0.43126	0.495548
607	C	0.098983	0.470719	0.508358
608	C	0.127044	0.483046	0.493739
609	C	0.13907	0.457671	0.461934
610	H	0.089308	0.493411	0.527084
611	H	0.156115	0.470966	0.44571
612	H	0.086743	0.381698	0.449731
613	C	0.39016	0.590614	0.610557
614	C	0.415586	0.574846	0.63012
615	C	0.429174	0.598022	0.662275
616	C	0.413573	0.637446	0.341828
617	C	0.385487	0.649777	0.660673
618	C	0.373448	0.624446	0.628814
619	H	0.42326	0.660125	0.360554
620	H	0.356358	0.637683	0.612644
621	H	0.425824	0.548604	0.616336
622	C	0.372284	0.42188	0.61053
623	C	0.346869	0.437676	0.630099
624	C	0.333253	0.414467	0.6622
625	C	0.348821	0.374988	0.341694
626	C	0.376874	0.36243	0.660487
627	C	0.388931	0.387961	0.628769
628	H	0.339095	0.352323	0.360393
629	H	0.40601	0.37469	0.612608
630	H	0.336653	0.463924	0.616288
631	C	0.372304	0.423491	0.568324
632	C	0.346891	0.40775	0.548803
633	C	0.333196	0.431264	0.516941
634	C	0.348762	0.4708	0.50422
635	C	0.376833	0.483317	0.51872
636	C	0.388863	0.457773	0.550477
637	H	0.33901	0.493539	0.485614
638	H	0.405945	0.470953	0.566701
639	H	0.336767	0.381288	0.562441
640	C	0.390189	0.589	0.568372
641	C	0.415588	0.604654	0.54877
642	C	0.429272	0.58115	0.516884
643	C	0.413693	0.541637	0.504152
644	C	0.385614	0.529215	0.518636
645	C	0.373697	0.554617	0.550567
646	H	0.423413	0.518905	0.485506
647	H	0.356504	0.541451	0.566602
648	H	0.425677	0.631254	0.562241
649	C	0.055619	0.416473	0.511637
650	C	0.04431	0.436224	0.546905
651	C	0.020604	0.418053	0.56859
652	C	0.007012	0.378612	0.553048
653	C	0.013839	0.359053	0.514908
654	C	0.038502	0.37984	0.496095
655	H	0.491977	0.363953	0.571311
656	H	0.044654	0.366992	0.469599
657	H	0.05576	0.461282	0.560815
658	C	0.206921	0.595846	0.511661
659	C	0.218177	0.576186	0.546994
660	C	0.241858	0.594418	0.568683
661	C	0.255423	0.633873	0.55312
662	C	0.248652	0.653323	0.514917
663	C	0.224062	0.632398	0.496038
664	H	0.270369	0.648657	0.571442
665	H	0.218044	0.644931	0.469354
666	H	0.206678	0.5512	0.560943
667	C	0.206966	0.583275	0.667537
668	C	0.218228	0.602942	0.632204
669	C	0.241825	0.584595	0.610404
670	C	0.255404	0.54516	0.62601
671	C	0.248658	0.525736	0.66423
672	C	0.224084	0.546676	0.349786
673	H	0.270299	0.530298	0.607663
674	H	0.218031	0.534044	0.376405
675	H	0.206719	0.62788	0.618231
676	C	0.055479	0.429267	0.667453
677	C	0.044214	0.409638	0.632108
678	C	0.020588	0.427934	0.6103
679	C	0.007071	0.467396	0.625971
680	C	0.013795	0.486775	0.664218
681	C	0.038348	0.465796	0.349774
682	H	0.492204	0.482326	0.607618
683	H	0.044345	0.478265	0.376485
684	H	0.055744	0.384719	0.618138
685	C	0.457036	0.59592	0.500821
686	C	0.468309	0.576277	0.46548
687	C	0.492005	0.594519	0.443746
688	C	0.505422	0.634086	0.459318
689	C	0.498692	0.653486	0.497551
690	C	0.474168	0.632459	0.516474
691	H	0.020253	0.649036	0.440927
692	H	0.468217	0.644854	0.543233
693	H	0.456796	0.551305	0.451549
694	C	0.305441	0.416466	0.500872
695	C	0.294172	0.436062	0.46551
696	C	0.270461	0.417915	0.443755
697	C	0.257031	0.378365	0.459366
698	C	0.263792	0.358898	0.49756
699	C	0.288337	0.379877	0.516471
700	H	0.242113	0.363523	0.441043
701	H	0.294349	0.367357	0.543156
702	H	0.305655	0.461126	0.451665
703	C	0.305517	0.429335	0.344964
704	C	0.294236	0.409722	0.380315
705	C	0.270564	0.427904	0.402081
706	C	0.257035	0.467359	0.386434
707	C	0.263829	0.486867	0.348267
708	C	0.288436	0.465985	0.662745
709	H	0.242059	0.482122	0.404721
710	H	0.294555	0.478732	0.636195
711	H	0.305698	0.384669	0.394192
712	C	0.456914	0.583156	0.345033
713	C	0.468217	0.602871	0.380324
714	C	0.491857	0.584544	0.402042
715	C	0.505444	0.545122	0.386461
716	C	0.498642	0.525652	0.348279
717	C	0.474007	0.54651	0.662798
718	H	0.020449	0.530406	0.404733
719	H	0.467868	0.533719	0.636276
720	H	0.456768	0.62788	0.394288
721	C	0.122334	0.422212	0.734959
722	C	0.096901	0.437876	0.715446
723	C	0.083251	0.414504	0.68348
724	C	0.098831	0.375004	0.004064
725	C	0.126927	0.36262	0.685175
726	C	0.138996	0.388127	0.716962
727	H	0.08908	0.352235	0.985479
728	H	0.156057	0.374771	0.733108
729	H	0.086782	0.464378	0.729031
730	C	0.140239	0.590635	0.735377
731	C	0.165684	0.574971	0.715838
732	C	0.179236	0.59813	0.683662
733	C	0.163616	0.637555	0.004154
734	C	0.135576	0.64998	0.685507
735	C	0.123455	0.624425	0.717165
736	H	0.173307	0.66025	0.985443
737	H	0.1064	0.637866	0.733249
738	H	0.175885	0.548642	0.729551
739	C	0.140013	0.588895	0.777559
740	C	0.165432	0.604633	0.797134
741	C	0.179151	0.581089	0.828961
742	C	0.16363	0.541505	0.841636
743	C	0.135571	0.529083	0.827014
744	C	0.123379	0.554776	0.79549
745	H	0.173438	0.518671	0.860105
746	H	0.106409	0.541302	0.779263
747	H	0.175546	0.63119	0.783625
748	C	0.122367	0.423708	0.77715
749	C	0.096978	0.407976	0.796797
750	C	0.083378	0.43126	0.828883
751	C	0.098983	0.470719	0.84169
752	C	0.127044	0.483046	0.827074
753	C	0.13907	0.457671	0.795269
754	H	0.089308	0.493411	0.860419
755	H	0.156115	0.470966	0.779045
756	H	0.086743	0.381698	0.783066
757	C	0.39016	0.590614	0.943892
758	C	0.415586	0.574846	0.963455
759	C	0.429174	0.598022	0.99561
760	C	0.413573	0.637446	0.67516
761	C	0.385487	0.649777	0.994008
762	C	0.373448	0.624446	0.962149
763	H	0.42326	0.660125	0.693886
764	H	0.356358	0.637683	0.945978
765	H	0.425824	0.548604	0.94967
766	C	0.372284	0.42188	0.943862
767	C	0.346869	0.437676	0.963434
768	C	0.333253	0.414467	0.995532
769	C	0.348821	0.374988	0.675025
770	C	0.376874	0.36243	0.993819
771	C	0.388931	0.387961	0.962101
772	H	0.339095	0.352323	0.693725
773	H	0.40601	0.37469	0.94594
774	H	0.336653	0.463924	0.94962
775	C	0.372304	0.423491	0.901656
776	C	0.346891	0.40775	0.882138
777	C	0.333196	0.431264	0.850276
778	C	0.348762	0.4708	0.837555
779	C	0.376833	0.483317	0.852054
780	C	0.388863	0.457773	0.883812
781	H	0.33901	0.493539	0.818946
782	H	0.405945	0.470953	0.900036
783	H	0.336767	0.381288	0.895776
784	C	0.390189	0.589	0.901707
785	C	0.415588	0.604654	0.882105
786	C	0.429272	0.58115	0.850219
787	C	0.413693	0.541637	0.837484
788	C	0.385614	0.529215	0.851971
789	C	0.373697	0.554617	0.883902
790	H	0.423413	0.518905	0.818838
791	H	0.356504	0.541451	0.899934
792	H	0.425677	0.631254	0.895576
793	C	0.055619	0.416473	0.844969
794	C	0.04431	0.436224	0.880239
795	C	0.020604	0.418053	0.901922
796	C	0.007012	0.378612	0.88638
797	C	0.013839	0.359053	0.848243
798	C	0.038502	0.37984	0.829427
799	H	0.491977	0.363953	0.904646
800	H	0.044654	0.366992	0.802934
801	H	0.05576	0.461282	0.894147
802	C	0.206921	0.595846	0.844996
803	C	0.218177	0.576186	0.880329
804	C	0.241858	0.594418	0.902018
805	C	0.255423	0.633873	0.886455
806	C	0.248652	0.653323	0.848249
807	C	0.224062	0.632398	0.82937
808	H	0.270369	0.648657	0.904774
809	H	0.218044	0.644931	0.802689
810	H	0.206678	0.5512	0.894275
811	C	0.206966	0.583275	0.000872
812	C	0.218228	0.602942	0.965539
813	C	0.241825	0.584595	0.943739
814	C	0.255404	0.54516	0.959344
815	C	0.248658	0.525736	0.997562
816	C	0.224084	0.546676	0.683121
817	H	0.270299	0.530298	0.940995
818	H	0.218031	0.534044	0.709739
819	H	0.206719	0.62788	0.951566
820	C	0.055479	0.429267	0.000788
821	C	0.044214	0.409638	0.96544
822	C	0.020588	0.427934	0.943635
823	C	0.007071	0.467396	0.959306
824	C	0.013795	0.486775	0.99755
825	C	0.038348	0.465796	0.683106
826	H	0.492204	0.482326	0.940953
827	H	0.044345	0.478265	0.709817
828	H	0.055744	0.384719	0.95147
829	C	0.457036	0.59592	0.834156
830	C	0.468309	0.576277	0.798814
831	C	0.492005	0.594519	0.777081
832	C	0.505422	0.634086	0.792653
833	C	0.498692	0.653486	0.830883
834	C	0.474168	0.632459	0.849806
835	H	0.020253	0.649036	0.774259
836	H	0.468217	0.644854	0.876568
837	H	0.456796	0.551305	0.784883
838	C	0.305441	0.416466	0.834207
839	C	0.294172	0.436062	0.798844
840	C	0.270461	0.417915	0.77709
841	C	0.257031	0.378365	0.792701
842	C	0.263792	0.358898	0.830895
843	C	0.288337	0.379877	0.849803
844	H	0.242113	0.363523	0.774375
845	H	0.294349	0.367357	0.876491
846	H	0.305655	0.461126	0.785
847	C	0.305517	0.429335	0.678299
848	C	0.294236	0.409722	0.71365
849	C	0.270564	0.427904	0.735416
850	C	0.257035	0.467359	0.719769
851	C	0.263829	0.486867	0.681599
852	C	0.288436	0.465985	0.996079
853	H	0.242059	0.482122	0.738053
854	H	0.294555	0.478732	0.96953
855	H	0.305698	0.384669	0.727527
856	C	0.456914	0.583156	0.678368
857	C	0.468217	0.602871	0.713659
858	C	0.491857	0.584544	0.735377
859	C	0.505444	0.545122	0.719793
860	C	0.498642	0.525652	0.681611
861	C	0.474007	0.54651	0.996133
862	H	0.020449	0.530406	0.738068
863	H	0.467868	0.533719	0.96961
864	H	0.456768	0.62788	0.727623
865	C	0.122334	0.755548	0.068291
866	C	0.096901	0.771209	0.04878
867	C	0.083251	0.747837	0.016813
868	C	0.098831	0.708341	0.337395
869	C	0.126927	0.695952	0.018506
870	C	0.138996	0.72146	0.050294
871	H	0.08908	0.685571	0.318812
872	H	0.156057	0.708107	0.066441
873	H	0.086782	0.797711	0.062364
874	C	0.140239	0.923971	0.068709
875	C	0.165684	0.908307	0.04917
876	C	0.179236	0.931463	0.016993
877	C	0.163616	0.970887	0.337487
878	C	0.135576	0.983313	0.018839
879	C	0.123455	0.957758	0.050496
880	H	0.173307	0.993586	0.318776
881	H	0.1064	0.971199	0.06658
882	H	0.175885	0.881974	0.062884
883	C	0.140013	0.922228	0.110891
884	C	0.165432	0.93797	0.130468
885	C	0.179151	0.914422	0.162292
886	C	0.16363	0.874838	0.174969
887	C	0.135571	0.862416	0.160346
888	C	0.123379	0.888109	0.128824
889	H	0.173438	0.852004	0.193439
890	H	0.106409	0.874635	0.112596
891	H	0.175546	0.964522	0.116958
892	C	0.122367	0.75704	0.110481
893	C	0.096978	0.741309	0.13013
894	C	0.083378	0.764593	0.162215
895	C	0.098983	0.804052	0.175023
896	C	0.127044	0.816379	0.160405
897	C	0.13907	0.791004	0.1286
898	H	0.089308	0.826747	0.19375
899	H	0.156115	0.804299	0.112378
900	H	0.086743	0.71503	0.116397
901	C	0.39016	0.923947	0.277224
902	C	0.415586	0.908182	0.296788
903	C	0.429174	0.931354	0.328943
904	C	0.413573	0.970783	0.008493
905	C	0.385487	0.983113	0.327338
906	C	0.373448	0.957779	0.295481
907	H	0.42326	0.993461	0.02722
908	H	0.356358	0.971016	0.27931
909	H	0.425824	0.881937	0.283002
910	C	0.372284	0.755217	0.277195
911	C	0.346869	0.771009	0.296767
912	C	0.333253	0.747799	0.328866
913	C	0.348821	0.708324	0.008359
914	C	0.376874	0.695766	0.327153
915	C	0.388931	0.721294	0.295434
916	H	0.339095	0.685656	0.027058
917	H	0.40601	0.708026	0.279273
918	H	0.336653	0.797261	0.282953
919	C	0.372304	0.756824	0.23499
920	C	0.346891	0.741082	0.215469
921	C	0.333196	0.764597	0.183607
922	C	0.348762	0.804133	0.170887
923	C	0.376833	0.81665	0.185386
924	C	0.388863	0.791105	0.217144
925	H	0.33901	0.826872	0.152279
926	H	0.405945	0.804285	0.233369
927	H	0.336767	0.714624	0.229107
928	C	0.390189	0.922333	0.235039
929	C	0.415588	0.937987	0.215437
930	C	0.429272	0.914486	0.183552
931	C	0.413693	0.87497	0.170817
932	C	0.385614	0.862551	0.185302
933	C	0.373697	0.887954	0.217233
934	H	0.423413	0.852237	0.152172
935	H	0.356504	0.874787	0.233268
936	H	0.425677	0.964587	0.228907
937	C	0.055619	0.749806	0.178302
938	C	0.04431	0.769557	0.213572
939	C	0.020604	0.75139	0.235255
940	C	0.007012	0.711944	0.219714
941	C	0.013839	0.692386	0.181574
942	C	0.038502	0.713173	0.16276
943	H	0.491977	0.697289	0.237978
944	H	0.044654	0.700328	0.136266
945	H	0.05576	0.794614	0.22748
946	C	0.206921	0.929179	0.178329
947	C	0.218177	0.909519	0.213661
948	C	0.241858	0.927754	0.235349
949	C	0.255423	0.967206	0.219787
950	C	0.248652	0.986656	0.181583
951	C	0.224062	0.96573	0.162703
952	H	0.270369	0.98199	0.238107
953	H	0.218044	0.978264	0.136022
954	H	0.206678	0.884536	0.227609
955	C	0.206966	0.916608	0.334205
956	C	0.218228	0.936278	0.29887
957	C	0.241825	0.917927	0.277072
958	C	0.255404	0.878492	0.292677
959	C	0.248658	0.859073	0.330895
960	C	0.224084	0.880008	0.016452
961	H	0.270299	0.863631	0.274328
962	H	0.218031	0.867377	0.043071
963	H	0.206719	0.961213	0.284898
964	C	0.055479	0.7626	0.334118
965	C	0.044214	0.742974	0.298774
966	C	0.020588	0.761267	0.276966
967	C	0.007071	0.800732	0.292637
968	C	0.013795	0.820108	0.330883
969	C	0.038348	0.799132	0.01644
970	H	0.492204	0.815658	0.274286
971	H	0.044345	0.811598	0.043151
972	H	0.055744	0.718052	0.284803
973	C	0.457036	0.929253	0.167489
974	C	0.468309	0.90961	0.132147
975	C	0.492005	0.927852	0.110413
976	C	0.505422	0.967419	0.125985
977	C	0.498692	0.986818	0.164216
978	C	0.474168	0.965791	0.18314
979	H	0.020253	0.982369	0.107592
980	H	0.468217	0.978186	0.209901
981	H	0.456796	0.884637	0.118216
982	C	0.305441	0.749803	0.167539
983	C	0.294172	0.769395	0.132177
984	C	0.270461	0.751247	0.110422
985	C	0.257031	0.711697	0.126032
986	C	0.263792	0.69223	0.164227
987	C	0.288337	0.71321	0.183137
988	H	0.242113	0.696856	0.107708
989	H	0.294349	0.70069	0.209823
990	H	0.305655	0.794459	0.118333
991	C	0.305517	0.762668	0.01163
992	C	0.294236	0.743055	0.046981
993	C	0.270564	0.761236	0.068748
994	C	0.257035	0.800692	0.053102
995	C	0.263829	0.820199	0.014932
996	C	0.288436	0.799318	0.32941
997	H	0.242059	0.815455	0.071386
998	H	0.294555	0.812068	0.30286
999	H	0.305698	0.718001	0.060859
1000	C	0.456914	0.916493	0.011699
1001	C	0.468217	0.936203	0.046991
1002	C	0.491857	0.917877	0.068709
1003	C	0.505444	0.878455	0.053126
1004	C	0.498642	0.858985	0.014945
1005	C	0.474007	0.879843	0.329463
1006	H	0.020449	0.863739	0.071399
1007	H	0.467868	0.867052	0.302944
1008	H	0.456768	0.961216	0.060955
1009	C	0.122334	0.755548	0.401624
1010	C	0.096901	0.771209	0.382114
1011	C	0.083251	0.747837	0.350148
1012	C	0.098831	0.708341	0.670729
1013	C	0.126927	0.695952	0.35184
1014	C	0.138996	0.72146	0.383627
1015	H	0.08908	0.685571	0.652147
1016	H	0.156057	0.708107	0.399776
1017	H	0.086782	0.797711	0.395699
1018	C	0.140239	0.923971	0.402042
1019	C	0.165684	0.908307	0.382503
1020	C	0.179236	0.931463	0.350327
1021	C	0.163616	0.970887	0.670819
1022	C	0.135576	0.983313	0.352172
1023	C	0.123455	0.957758	0.38383
1024	H	0.173307	0.993586	0.652108
1025	H	0.1064	0.971199	0.399914
1026	H	0.175885	0.881974	0.396219
1027	C	0.140013	0.922228	0.444224
1028	C	0.165432	0.93797	0.463802
1029	C	0.179151	0.914422	0.495626
1030	C	0.16363	0.874838	0.508304
1031	C	0.135571	0.862416	0.49368
1032	C	0.123379	0.888109	0.462158
1033	H	0.173438	0.852004	0.526773
1034	H	0.106409	0.874635	0.445928
1035	H	0.175546	0.964522	0.450293
1036	C	0.122367	0.75704	0.443815
1037	C	0.096978	0.741309	0.463465
1038	C	0.083378	0.764593	0.495548
1039	C	0.098983	0.804052	0.508358
1040	C	0.127044	0.816379	0.493739
1041	C	0.13907	0.791004	0.461934
1042	H	0.089308	0.826747	0.527084
1043	H	0.156115	0.804299	0.44571
1044	H	0.086743	0.71503	0.449731
1045	C	0.39016	0.923947	0.610557
1046	C	0.415586	0.908182	0.63012
1047	C	0.429174	0.931354	0.662275
1048	C	0.413573	0.970783	0.341828
1049	C	0.385487	0.983113	0.660673
1050	C	0.373448	0.957779	0.628814
1051	H	0.42326	0.993461	0.360554
1052	H	0.356358	0.971016	0.612644
1053	H	0.425824	0.881937	0.616336
1054	C	0.372284	0.755217	0.61053
1055	C	0.346869	0.771009	0.630099
1056	C	0.333253	0.747799	0.6622
1057	C	0.348821	0.708324	0.341694
1058	C	0.376874	0.695766	0.660487
1059	C	0.388931	0.721294	0.628769
1060	H	0.339095	0.685656	0.360393
1061	H	0.40601	0.708026	0.612608
1062	H	0.336653	0.797261	0.616288
1063	C	0.372304	0.756824	0.568324
1064	C	0.346891	0.741082	0.548803
1065	C	0.333196	0.764597	0.516941
1066	C	0.348762	0.804133	0.50422
1067	C	0.376833	0.81665	0.51872
1068	C	0.388863	0.791105	0.550477
1069	H	0.33901	0.826872	0.485614
1070	H	0.405945	0.804285	0.566701
1071	H	0.336767	0.714624	0.562441
1072	C	0.390189	0.922333	0.568372
1073	C	0.415588	0.937987	0.54877
1074	C	0.429272	0.914486	0.516884
1075	C	0.413693	0.87497	0.504152
1076	C	0.385614	0.862551	0.518636
1077	C	0.373697	0.887954	0.550567
1078	H	0.423413	0.852237	0.485506
1079	H	0.356504	0.874787	0.566602
1080	H	0.425677	0.964587	0.562241
1081	C	0.055619	0.749806	0.511637
1082	C	0.04431	0.769557	0.546905
1083	C	0.020604	0.75139	0.56859
1084	C	0.007012	0.711944	0.553048
1085	C	0.013839	0.692386	0.514908
1086	C	0.038502	0.713173	0.496095
1087	H	0.491977	0.697289	0.571311
1088	H	0.044654	0.700328	0.469599
1089	H	0.05576	0.794614	0.560815
1090	C	0.206921	0.929179	0.511661
1091	C	0.218177	0.909519	0.546994
1092	C	0.241858	0.927754	0.568683
1093	C	0.255423	0.967206	0.55312
1094	C	0.248652	0.986656	0.514917
1095	C	0.224062	0.96573	0.496038
1096	H	0.270369	0.98199	0.571442
1097	H	0.218044	0.978264	0.469354
1098	H	0.206678	0.884536	0.560943
1099	C	0.206966	0.916608	0.667537
1100	C	0.218228	0.936278	0.632204
1101	C	0.241825	0.917927	0.610404
1102	C	0.255404	0.878492	0.62601
1103	C	0.248658	0.859073	0.66423
1104	C	0.224084	0.880008	0.349786
1105	H	0.270299	0.863631	0.607663
1106	H	0.218031	0.867377	0.376405
1107	H	0.206719	0.961213	0.618231
1108	C	0.055479	0.7626	0.667453
1109	C	0.044214	0.742974	0.632108
1110	C	0.020588	0.761267	0.6103
1111	C	0.007071	0.800732	0.625971
1112	C	0.013795	0.820108	0.664218
1113	C	0.038348	0.799132	0.349774
1114	H	0.492204	0.815658	0.607618
1115	H	0.044345	0.811598	0.376485
1116	H	0.055744	0.718052	0.618138
1117	C	0.457036	0.929253	0.500821
1118	C	0.468309	0.90961	0.46548
1119	C	0.492005	0.927852	0.443746
1120	C	0.505422	0.967419	0.459318
1121	C	0.498692	0.986818	0.497551
1122	C	0.474168	0.965791	0.516474
1123	H	0.020253	0.982369	0.440927
1124	H	0.468217	0.978186	0.543233
1125	H	0.456796	0.884637	0.451549
1126	C	0.305441	0.749803	0.500872
1127	C	0.294172	0.769395	0.46551
1128	C	0.270461	0.751247	0.443755
1129	C	0.257031	0.711697	0.459366
1130	C	0.263792	0.69223	0.49756
1131	C	0.288337	0.71321	0.516471
1132	H	0.242113	0.696856	0.441043
1133	H	0.294349	0.70069	0.543156
1134	H	0.305655	0.794459	0.451665
1135	C	0.305517	0.762668	0.344964
1136	C	0.294236	0.743055	0.380315
1137	C	0.270564	0.761236	0.402081
1138	C	0.257035	0.800692	0.386434
1139	C	0.263829	0.820199	0.348267
1140	C	0.288436	0.799318	0.662745
1141	H	0.242059	0.815455	0.404721
1142	H	0.294555	0.812068	0.636195
1143	H	0.305698	0.718001	0.394192
1144	C	0.456914	0.916493	0.345033
1145	C	0.468217	0.936203	0.380324
1146	C	0.491857	0.917877	0.402042
1147	C	0.505444	0.878455	0.386461
1148	C	0.498642	0.858985	0.348279
1149	C	0.474007	0.879843	0.662798
1150	H	0.020449	0.863739	0.404733
1151	H	0.467868	0.867052	0.636276
1152	H	0.456768	0.961216	0.394288
1153	C	0.122334	0.755548	0.734959
1154	C	0.096901	0.771209	0.715446
1155	C	0.083251	0.747837	0.68348
1156	C	0.098831	0.708341	0.004064
1157	C	0.126927	0.695952	0.685175
1158	C	0.138996	0.72146	0.716962
1159	H	0.08908	0.685571	0.985479
1160	H	0.156057	0.708107	0.733108
1161	H	0.086782	0.797711	0.729031
1162	C	0.140239	0.923971	0.735377
1163	C	0.165684	0.908307	0.715838
1164	C	0.179236	0.931463	0.683662
1165	C	0.163616	0.970887	0.004154
1166	C	0.135576	0.983313	0.685507
1167	C	0.123455	0.957758	0.717165
1168	H	0.173307	0.993586	0.985443
1169	H	0.1064	0.971199	0.733249
1170	H	0.175885	0.881974	0.729551
1171	C	0.140013	0.922228	0.777559
1172	C	0.165432	0.93797	0.797134
1173	C	0.179151	0.914422	0.828961
1174	C	0.16363	0.874838	0.841636
1175	C	0.135571	0.862416	0.827014
1176	C	0.123379	0.888109	0.79549
1177	H	0.173438	0.852004	0.860105
1178	H	0.106409	0.874635	0.779263
1179	H	0.175546	0.964522	0.783625
1180	C	0.122367	0.75704	0.77715
1181	C	0.096978	0.741309	0.796797
1182	C	0.083378	0.764593	0.828883
1183	C	0.098983	0.804052	0.84169
1184	C	0.127044	0.816379	0.827074
1185	C	0.13907	0.791004	0.795269
1186	H	0.089308	0.826747	0.860419
1187	H	0.156115	0.804299	0.779045
1188	H	0.086743	0.71503	0.783066
1189	C	0.39016	0.923947	0.943892
1190	C	0.415586	0.908182	0.963455
1191	C	0.429174	0.931354	0.99561
1192	C	0.413573	0.970783	0.67516
1193	C	0.385487	0.983113	0.994008
1194	C	0.373448	0.957779	0.962149
1195	H	0.42326	0.993461	0.693886
1196	H	0.356358	0.971016	0.945978
1197	H	0.425824	0.881937	0.94967
1198	C	0.372284	0.755217	0.943862
1199	C	0.346869	0.771009	0.963434
1200	C	0.333253	0.747799	0.995532
1201	C	0.348821	0.708324	0.675025
1202	C	0.376874	0.695766	0.993819
1203	C	0.388931	0.721294	0.962101
1204	H	0.339095	0.685656	0.693725
1205	H	0.40601	0.708026	0.94594
1206	H	0.336653	0.797261	0.94962
1207	C	0.372304	0.756824	0.901656
1208	C	0.346891	0.741082	0.882138
1209	C	0.333196	0.764597	0.850276
1210	C	0.348762	0.804133	0.837555
1211	C	0.376833	0.81665	0.852054
1212	C	0.388863	0.791105	0.883812
1213	H	0.33901	0.826872	0.818946
1214	H	0.405945	0.804285	0.900036
1215	H	0.336767	0.714624	0.895776
1216	C	0.390189	0.922333	0.901707
1217	C	0.415588	0.937987	0.882105
1218	C	0.429272	0.914486	0.850219
1219	C	0.413693	0.87497	0.837484
1220	C	0.385614	0.862551	0.851971
1221	C	0.373697	0.887954	0.883902
1222	H	0.423413	0.852237	0.818838
1223	H	0.356504	0.874787	0.899934
1224	H	0.425677	0.964587	0.895576
1225	C	0.055619	0.749806	0.844969
1226	C	0.04431	0.769557	0.880239
1227	C	0.020604	0.75139	0.901922
1228	C	0.007012	0.711944	0.88638
1229	C	0.013839	0.692386	0.848243
1230	C	0.038502	0.713173	0.829427
1231	H	0.491977	0.697289	0.904646
1232	H	0.044654	0.700328	0.802934
1233	H	0.05576	0.794614	0.894147
1234	C	0.206921	0.929179	0.844996
1235	C	0.218177	0.909519	0.880329
1236	C	0.241858	0.927754	0.902018
1237	C	0.255423	0.967206	0.886455
1238	C	0.248652	0.986656	0.848249
1239	C	0.224062	0.96573	0.82937
1240	H	0.270369	0.98199	0.904774
1241	H	0.218044	0.978264	0.802689
1242	H	0.206678	0.884536	0.894275
1243	C	0.206966	0.916608	0.000872
1244	C	0.218228	0.936278	0.965539
1245	C	0.241825	0.917927	0.943739
1246	C	0.255404	0.878492	0.959344
1247	C	0.248658	0.859073	0.997562
1248	C	0.224084	0.880008	0.683121
1249	H	0.270299	0.863631	0.940995
1250	H	0.218031	0.867377	0.709739
1251	H	0.206719	0.961213	0.951566
1252	C	0.055479	0.7626	0.000788
1253	C	0.044214	0.742974	0.96544
1254	C	0.020588	0.761267	0.943635
1255	C	0.007071	0.800732	0.959306
1256	C	0.013795	0.820108	0.99755
1257	C	0.038348	0.799132	0.683106
1258	H	0.492204	0.815658	0.940953
1259	H	0.044345	0.811598	0.709817
1260	H	0.055744	0.718052	0.95147
1261	C	0.457036	0.929253	0.834156
1262	C	0.468309	0.90961	0.798814
1263	C	0.492005	0.927852	0.777081
1264	C	0.505422	0.967419	0.792653
1265	C	0.498692	0.986818	0.830883
1266	C	0.474168	0.965791	0.849806
1267	H	0.020253	0.982369	0.774259
1268	H	0.468217	0.978186	0.876568
1269	H	0.456796	0.884637	0.784883
1270	C	0.305441	0.749803	0.834207
1271	C	0.294172	0.769395	0.798844
1272	C	0.270461	0.751247	0.77709
1273	C	0.257031	0.711697	0.792701
1274	C	0.263792	0.69223	0.830895
1275	C	0.288337	0.71321	0.849803
1276	H	0.242113	0.696856	0.774375
1277	H	0.294349	0.70069	0.876491
1278	H	0.305655	0.794459	0.785
1279	C	0.305517	0.762668	0.678299
1280	C	0.294236	0.743055	0.71365
1281	C	0.270564	0.761236	0.735416
1282	C	0.257035	0.800692	0.719769
1283	C	0.263829	0.820199	0.681599
1284	C	0.288436	0.799318	0.996079
1285	H	0.242059	0.815455	0.738053
1286	H	0.294555	0.812068	0.96953
1287	H	0.305698	0.718001	0.727527
1288	C	0.456914	0.916493	0.678368
1289	C	0.468217	0.936203	0.713659
1290	C	0.491857	0.917877	0.735377
1291	C	0.505444	0.878455	0.719793
1292	C	0.498642	0.858985	0.681611
1293	C	0.474007	0.879843	0.996133
1294	H	0.020449	0.863739	0.738068
1295	H	0.467868	0.867052	0.96961
1296	H	0.456768	0.961216	0.727623
1297	C	0.622333	0.08888	0.068291
1298	C	0.596901	0.104543	0.04878
1299	C	0.58325	0.08117	0.016813
1300	C	0.598831	0.041672	0.337395
1301	C	0.626928	0.029285	0.018506
1302	C	0.638995	0.054793	0.050294
1303	H	0.589081	0.018902	0.318812
1304	H	0.656057	0.041439	0.066441
1305	H	0.586781	0.131044	0.062364
1306	C	0.64024	0.257302	0.068709
1307	C	0.665683	0.241638	0.04917
1308	C	0.679236	0.264795	0.016993
1309	C	0.663617	0.304221	0.337487
1310	C	0.635576	0.316646	0.018839
1311	C	0.623456	0.291092	0.050496
1312	H	0.673307	0.326917	0.318776
1313	H	0.6064	0.304531	0.06658
1314	H	0.675886	0.215307	0.062884
1315	C	0.640013	0.255561	0.110891
1316	C	0.665432	0.271301	0.130468
1317	C	0.679151	0.247755	0.162292
1318	C	0.663631	0.20817	0.174969
1319	C	0.635571	0.19575	0.160346
1320	C	0.623379	0.221441	0.128824
1321	H	0.673438	0.185338	0.193439
1322	H	0.606409	0.207969	0.112596
1323	H	0.675545	0.297855	0.116958
1324	C	0.622366	0.090374	0.110481
1325	C	0.596977	0.074643	0.13013
1326	C	0.583377	0.097927	0.162215
1327	C	0.598982	0.137385	0.175023
1328	C	0.627043	0.149713	0.160405
1329	C	0.63907	0.124337	0.1286
1330	H	0.589308	0.160078	0.19375
1331	H	0.656114	0.137631	0.112378
1332	H	0.586742	0.048364	0.116397
1333	C	0.89016	0.25728	0.277224
1334	C	0.915586	0.241513	0.296788
1335	C	0.929174	0.264686	0.328943
1336	C	0.913573	0.304114	0.008493
1337	C	0.885487	0.316444	0.327338
1338	C	0.873448	0.291111	0.295481
1339	H	0.92326	0.326792	0.02722
1340	H	0.856358	0.30435	0.27931
1341	H	0.925824	0.21527	0.283002
1342	C	0.872284	0.088548	0.277195
1343	C	0.846869	0.104342	0.296767
1344	C	0.833253	0.081132	0.328866
1345	C	0.848821	0.041655	0.008359
1346	C	0.876874	0.029098	0.327153
1347	C	0.888931	0.054626	0.295434
1348	H	0.839095	0.018988	0.027058
1349	H	0.90601	0.041358	0.279273
1350	H	0.836653	0.130592	0.282953
1351	C	0.872304	0.090158	0.23499
1352	C	0.846891	0.074416	0.215469
1353	C	0.833197	0.097929	0.183607
1354	C	0.848762	0.137466	0.170887
1355	C	0.876833	0.149984	0.185386
1356	C	0.888863	0.124439	0.217144
1357	H	0.83901	0.160206	0.152279
1358	H	0.905945	0.137619	0.233369
1359	H	0.836765	0.047955	0.229107
1360	C	0.890189	0.255666	0.235039
1361	C	0.915588	0.27132	0.215437
1362	C	0.929272	0.247818	0.183552
1363	C	0.913693	0.208303	0.170817
1364	C	0.885614	0.195883	0.185302
1365	C	0.873697	0.221285	0.217233
1366	H	0.923413	0.185571	0.152172
1367	H	0.856504	0.208119	0.233268
1368	H	0.925677	0.29792	0.228907
1369	C	0.555619	0.083138	0.178302
1370	C	0.544311	0.10289	0.213572
1371	C	0.520604	0.084721	0.235255
1372	C	0.507012	0.045278	0.219714
1373	C	0.513839	0.025719	0.181574
1374	C	0.538502	0.046507	0.16276
1375	H	0.991977	0.030621	0.237978
1376	H	0.544654	0.033659	0.136266
1377	H	0.555761	0.127947	0.22748
1378	C	0.706922	0.262513	0.178329
1379	C	0.718177	0.242851	0.213661
1380	C	0.741858	0.261086	0.235349
1381	C	0.755423	0.30054	0.219787
1382	C	0.748652	0.319988	0.181583
1383	C	0.724062	0.299065	0.162703
1384	H	0.770369	0.315324	0.238107
1385	H	0.718044	0.311597	0.136022
1386	H	0.706677	0.217867	0.227609
1387	C	0.706965	0.249941	0.334205
1388	C	0.718227	0.269609	0.29887
1389	C	0.741825	0.251261	0.277072
1390	C	0.755402	0.211825	0.292677
1391	C	0.748658	0.192404	0.330895
1392	C	0.724084	0.213342	0.016452
1393	H	0.770299	0.196965	0.274328
1394	H	0.718031	0.200709	0.043071
1395	H	0.706719	0.294546	0.284898
1396	C	0.555479	0.095934	0.334118
1397	C	0.544215	0.076306	0.298774
1398	C	0.520589	0.094601	0.276966
1399	C	0.507071	0.134064	0.292637
1400	C	0.513795	0.153441	0.330883
1401	C	0.538347	0.132463	0.01644
1402	H	0.992204	0.148991	0.274286
1403	H	0.544344	0.144931	0.043151
1404	H	0.555743	0.051386	0.284803
1405	C	0.957036	0.262585	0.167489
1406	C	0.968309	0.242943	0.132147
1407	C	0.992005	0.261186	0.110413
1408	C	0.005422	0.300752	0.125985
1409	C	0.998692	0.320151	0.164216
1410	C	0.974168	0.299124	0.18314
1411	H	0.520252	0.315702	0.107592
1412	H	0.968217	0.311519	0.209901
1413	H	0.956796	0.217971	0.118216
1414	C	0.805441	0.083134	0.167539
1415	C	0.794172	0.102727	0.132177
1416	C	0.770461	0.084582	0.110422
1417	C	0.757031	0.04503	0.126032
1418	C	0.763792	0.025562	0.164227
1419	C	0.788337	0.046542	0.183137
1420	H	0.742113	0.030188	0.107708
1421	H	0.794349	0.034022	0.209823
1422	H	0.805655	0.127793	0.118333
1423	C	0.805517	0.096	0.01163
1424	C	0.794236	0.076389	0.046981
1425	C	0.770564	0.094569	0.068748
1426	C	0.757035	0.134026	0.053102
1427	C	0.763829	0.153531	0.014932
1428	C	0.788436	0.132651	0.32941
1429	H	0.742059	0.148788	0.071386
1430	H	0.794555	0.145399	0.30286
1431	H	0.805698	0.051333	0.060859
1432	C	0.956914	0.249824	0.011699
1433	C	0.968217	0.269537	0.046991
1434	C	0.991857	0.251211	0.068709
1435	C	0.005444	0.211789	0.053126
1436	C	0.998642	0.192318	0.014945
1437	C	0.974007	0.213176	0.329463
1438	H	0.520449	0.197072	0.071399
1439	H	0.967868	0.200384	0.302944
1440	H	0.956768	0.294548	0.060955
1441	C	0.622333	0.08888	0.401624
1442	C	0.596901	0.104543	0.382114
1443	C	0.58325	0.08117	0.350148
1444	C	0.598831	0.041672	0.670729
1445	C	0.626928	0.029285	0.35184
1446	C	0.638995	0.054793	0.383627
1447	H	0.589081	0.018902	0.652147
1448	H	0.656057	0.041439	0.399776
1449	H	0.586781	0.131044	0.395699
1450	C	0.64024	0.257302	0.402042
1451	C	0.665683	0.241638	0.382503
1452	C	0.679236	0.264795	0.350327
1453	C	0.663617	0.304221	0.670819
1454	C	0.635576	0.316646	0.352172
1455	C	0.623456	0.291092	0.38383
1456	H	0.673307	0.326917	0.652108
1457	H	0.6064	0.304531	0.399914
1458	H	0.675886	0.215307	0.396219
1459	C	0.640013	0.255561	0.444224
1460	C	0.665432	0.271301	0.463802
1461	C	0.679151	0.247755	0.495626
1462	C	0.663631	0.20817	0.508304
1463	C	0.635571	0.19575	0.49368
1464	C	0.623379	0.221441	0.462158
1465	H	0.673438	0.185338	0.526773
1466	H	0.606409	0.207969	0.445928
1467	H	0.675545	0.297855	0.450293
1468	C	0.622366	0.090374	0.443815
1469	C	0.596977	0.074643	0.463465
1470	C	0.583377	0.097927	0.495548
1471	C	0.598982	0.137385	0.508358
1472	C	0.627043	0.149713	0.493739
1473	C	0.63907	0.124337	0.461934
1474	H	0.589308	0.160078	0.527084
1475	H	0.656114	0.137631	0.44571
1476	H	0.586742	0.048364	0.449731
1477	C	0.89016	0.25728	0.610557
1478	C	0.915586	0.241513	0.63012
1479	C	0.929174	0.264686	0.662275
1480	C	0.913573	0.304114	0.341828
1481	C	0.885487	0.316444	0.660673
1482	C	0.873448	0.291111	0.628814
1483	H	0.92326	0.326792	0.360554
1484	H	0.856358	0.30435	0.612644
1485	H	0.925824	0.21527	0.616336
1486	C	0.872284	0.088548	0.61053
1487	C	0.846869	0.104342	0.630099
1488	C	0.833253	0.081132	0.6622
1489	C	0.848821	0.041655	0.341694
1490	C	0.876874	0.029098	0.660487
1491	C	0.888931	0.054626	0.628769
1492	H	0.839095	0.018988	0.360393
1493	H	0.90601	0.041358	0.612608
1494	H	0.836653	0.130592	0.616288
1495	C	0.872304	0.090158	0.568324
1496	C	0.846891	0.074416	0.548803
1497	C	0.833197	0.097929	0.516941
1498	C	0.848762	0.137466	0.50422
1499	C	0.876833	0.149984	0.51872
1500	C	0.888863	0.124439	0.550477
1501	H	0.83901	0.160206	0.485614
1502	H	0.905945	0.137619	0.566701
1503	H	0.836765	0.047955	0.562441
1504	C	0.890189	0.255666	0.568372
1505	C	0.915588	0.27132	0.54877
1506	C	0.929272	0.247818	0.516884
1507	C	0.913693	0.208303	0.504152
1508	C	0.885614	0.195883	0.518636
1509	C	0.873697	0.221285	0.550567
1510	H	0.923413	0.185571	0.485506
1511	H	0.856504	0.208119	0.566602
1512	H	0.925677	0.29792	0.562241
1513	C	0.555619	0.083138	0.511637
1514	C	0.544311	0.10289	0.546905
1515	C	0.520604	0.084721	0.56859
1516	C	0.507012	0.045278	0.553048
1517	C	0.513839	0.025719	0.514908
1518	C	0.538502	0.046507	0.496095
1519	H	0.991977	0.030621	0.571311
1520	H	0.544654	0.033659	0.469599
1521	H	0.555761	0.127947	0.560815
1522	C	0.706922	0.262513	0.511661
1523	C	0.718177	0.242851	0.546994
1524	C	0.741858	0.261086	0.568683
1525	C	0.755423	0.30054	0.55312
1526	C	0.748652	0.319988	0.514917
1527	C	0.724062	0.299065	0.496038
1528	H	0.770369	0.315324	0.571442
1529	H	0.718044	0.311597	0.469354
1530	H	0.706677	0.217867	0.560943
1531	C	0.706965	0.249941	0.667537
1532	C	0.718227	0.269609	0.632204
1533	C	0.741825	0.251261	0.610404
1534	C	0.755402	0.211825	0.62601
1535	C	0.748658	0.192404	0.66423
1536	C	0.724084	0.213342	0.349786
1537	H	0.770299	0.196965	0.607663
1538	H	0.718031	0.200709	0.376405
1539	H	0.706719	0.294546	0.618231
1540	C	0.555479	0.095934	0.667453
1541	C	0.544215	0.076306	0.632108
1542	C	0.520589	0.094601	0.6103
1543	C	0.507071	0.134064	0.625971
1544	C	0.513795	0.153441	0.664218
1545	C	0.538347	0.132463	0.349774
1546	H	0.992204	0.148991	0.607618
1547	H	0.544344	0.144931	0.376485
1548	H	0.555743	0.051386	0.618138
1549	C	0.957036	0.262585	0.500821
1550	C	0.968309	0.242943	0.46548
1551	C	0.992005	0.261186	0.443746
1552	C	0.005422	0.300752	0.459318
1553	C	0.998692	0.320151	0.497551
1554	C	0.974168	0.299124	0.516474
1555	H	0.520252	0.315702	0.440927
1556	H	0.968217	0.311519	0.543233
1557	H	0.956796	0.217971	0.451549
1558	C	0.805441	0.083134	0.500872
1559	C	0.794172	0.102727	0.46551
1560	C	0.770461	0.084582	0.443755
1561	C	0.757031	0.04503	0.459366
1562	C	0.763792	0.025562	0.49756
1563	C	0.788337	0.046542	0.516471
1564	H	0.742113	0.030188	0.441043
1565	H	0.794349	0.034022	0.543156
1566	H	0.805655	0.127793	0.451665
1567	C	0.805517	0.096	0.344964
1568	C	0.794236	0.076389	0.380315
1569	C	0.770564	0.094569	0.402081
1570	C	0.757035	0.134026	0.386434
1571	C	0.763829	0.153531	0.348267
1572	C	0.788436	0.132651	0.662745
1573	H	0.742059	0.148788	0.404721
1574	H	0.794555	0.145399	0.636195
1575	H	0.805698	0.051333	0.394192
1576	C	0.956914	0.249824	0.345033
1577	C	0.968217	0.269537	0.380324
1578	C	0.991857	0.251211	0.402042
1579	C	0.005444	0.211789	0.386461
1580	C	0.998642	0.192318	0.348279
1581	C	0.974007	0.213176	0.662798
1582	H	0.520449	0.197072	0.404733
1583	H	0.967868	0.200384	0.636276
1584	H	0.956768	0.294548	0.394288
1585	C	0.622333	0.08888	0.734959
1586	C	0.596901	0.104543	0.715446
1587	C	0.58325	0.08117	0.68348
1588	C	0.598831	0.041672	0.004064
1589	C	0.626928	0.029285	0.685175
1590	C	0.638995	0.054793	0.716962
1591	H	0.589081	0.018902	0.985479
1592	H	0.656057	0.041439	0.733108
1593	H	0.586781	0.131044	0.729031
1594	C	0.64024	0.257302	0.735377
1595	C	0.665683	0.241638	0.715838
1596	C	0.679236	0.264795	0.683662
1597	C	0.663617	0.304221	0.004154
1598	C	0.635576	0.316646	0.685507
1599	C	0.623456	0.291092	0.717165
1600	H	0.673307	0.326917	0.985443
1601	H	0.6064	0.304531	0.733249
1602	H	0.675886	0.215307	0.729551
1603	C	0.640013	0.255561	0.777559
1604	C	0.665432	0.271301	0.797134
1605	C	0.679151	0.247755	0.828961
1606	C	0.663631	0.20817	0.841636
1607	C	0.635571	0.19575	0.827014
1608	C	0.623379	0.221441	0.79549
1609	H	0.673438	0.185338	0.860105
1610	H	0.606409	0.207969	0.779263
1611	H	0.675545	0.297855	0.783625
1612	C	0.622366	0.090374	0.77715
1613	C	0.596977	0.074643	0.796797
1614	C	0.583377	0.097927	0.828883
1615	C	0.598982	0.137385	0.84169
1616	C	0.627043	0.149713	0.827074
1617	C	0.63907	0.124337	0.795269
1618	H	0.589308	0.160078	0.860419
1619	H	0.656114	0.137631	0.779045
1620	H	0.586742	0.048364	0.783066
1621	C	0.89016	0.25728	0.943892
1622	C	0.915586	0.241513	0.963455
1623	C	0.929174	0.264686	0.99561
1624	C	0.913573	0.304114	0.67516
1625	C	0.885487	0.316444	0.994008
1626	C	0.873448	0.291111	0.962149
1627	H	0.92326	0.326792	0.693886
1628	H	0.856358	0.30435	0.945978
1629	H	0.925824	0.21527	0.94967
1630	C	0.872284	0.088548	0.943862
1631	C	0.846869	0.104342	0.963434
1632	C	0.833253	0.081132	0.995532
1633	C	0.848821	0.041655	0.675025
1634	C	0.876874	0.029098	0.993819
1635	C	0.888931	0.054626	0.962101
1636	H	0.839095	0.018988	0.693725
1637	H	0.90601	0.041358	0.94594
1638	H	0.836653	0.130592	0.94962
1639	C	0.872304	0.090158	0.901656
1640	C	0.846891	0.074416	0.882138
1641	C	0.833197	0.097929	0.850276
1642	C	0.848762	0.137466	0.837555
1643	C	0.876833	0.149984	0.852054
1644	C	0.888863	0.124439	0.883812
1645	H	0.83901	0.160206	0.818946
1646	H	0.905945	0.137619	0.900036
1647	H	0.836765	0.047955	0.895776
1648	C	0.890189	0.255666	0.901707
1649	C	0.915588	0.27132	0.882105
1650	C	0.929272	0.247818	0.850219
1651	C	0.913693	0.208303	0.837484
1652	C	0.885614	0.195883	0.851971
1653	C	0.873697	0.221285	0.883902
1654	H	0.923413	0.185571	0.818838
1655	H	0.856504	0.208119	0.899934
1656	H	0.925677	0.29792	0.895576
1657	C	0.555619	0.083138	0.844969
1658	C	0.544311	0.10289	0.880239
1659	C	0.520604	0.084721	0.901922
1660	C	0.507012	0.045278	0.88638
1661	C	0.513839	0.025719	0.848243
1662	C	0.538502	0.046507	0.829427
1663	H	0.991977	0.030621	0.904646
1664	H	0.544654	0.033659	0.802934
1665	H	0.555761	0.127947	0.894147
1666	C	0.706922	0.262513	0.844996
1667	C	0.718177	0.242851	0.880329
1668	C	0.741858	0.261086	0.902018
1669	C	0.755423	0.30054	0.886455
1670	C	0.748652	0.319988	0.848249
1671	C	0.724062	0.299065	0.82937
1672	H	0.770369	0.315324	0.904774
1673	H	0.718044	0.311597	0.802689
1674	H	0.706677	0.217867	0.894275
1675	C	0.706965	0.249941	0.000872
1676	C	0.718227	0.269609	0.965539
1677	C	0.741825	0.251261	0.943739
1678	C	0.755402	0.211825	0.959344
1679	C	0.748658	0.192404	0.997562
1680	C	0.724084	0.213342	0.683121
1681	H	0.770299	0.196965	0.940995
1682	H	0.718031	0.200709	0.709739
1683	H	0.706719	0.294546	0.951566
1684	C	0.555479	0.095934	0.000788
1685	C	0.544215	0.076306	0.96544
1686	C	0.520589	0.094601	0.943635
1687	C	0.507071	0.134064	0.959306
1688	C	0.513795	0.153441	0.99755
1689	C	0.538347	0.132463	0.683106
1690	H	0.992204	0.148991	0.940953
1691	H	0.544344	0.144931	0.709817
1692	H	0.555743	0.051386	0.95147
1693	C	0.957036	0.262585	0.834156
1694	C	0.968309	0.242943	0.798814
1695	C	0.992005	0.261186	0.777081
1696	C	0.005422	0.300752	0.792653
1697	C	0.998692	0.320151	0.830883
1698	C	0.974168	0.299124	0.849806
1699	H	0.520252	0.315702	0.774259
1700	H	0.968217	0.311519	0.876568
1701	H	0.956796	0.217971	0.784883
1702	C	0.805441	0.083134	0.834207
1703	C	0.794172	0.102727	0.798844
1704	C	0.770461	0.084582	0.77709
1705	C	0.757031	0.04503	0.792701
1706	C	0.763792	0.025562	0.830895
1707	C	0.788337	0.046542	0.849803
1708	H	0.742113	0.030188	0.774375
1709	H	0.794349	0.034022	0.876491
1710	H	0.805655	0.127793	0.785
1711	C	0.805517	0.096	0.678299
1712	C	0.794236	0.076389	0.71365
1713	C	0.770564	0.094569	0.735416
1714	C	0.757035	0.134026	0.719769
1715	C	0.763829	0.153531	0.681599
1716	C	0.788436	0.132651	0.996079
1717	H	0.742059	0.148788	0.738053
1718	H	0.794555	0.145399	0.96953
1719	H	0.805698	0.051333	0.727527
1720	C	0.956914	0.249824	0.678368
1721	C	0.968217	0.269537	0.713659
1722	C	0.991857	0.251211	0.735377
1723	C	0.005444	0.211789	0.719793
1724	C	0.998642	0.192318	0.681611
1725	C	0.974007	0.213176	0.996133
1726	H	0.520449	0.197072	0.738068
1727	H	0.967868	0.200384	0.96961
1728	H	0.956768	0.294548	0.727623
1729	C	0.622333	0.422212	0.068291
1730	C	0.596901	0.437876	0.04878
1731	C	0.58325	0.414504	0.016813
1732	C	0.598831	0.375004	0.337395
1733	C	0.626928	0.36262	0.018506
1734	C	0.638995	0.388127	0.050294
1735	H	0.589081	0.352235	0.318812
1736	H	0.656057	0.374771	0.066441
1737	H	0.586781	0.464378	0.062364
1738	C	0.64024	0.590635	0.068709
1739	C	0.665683	0.574971	0.04917
1740	C	0.679236	0.59813	0.016993
1741	C	0.663617	0.637555	0.337487
1742	C	0.635576	0.64998	0.018839
1743	C	0.623456	0.624425	0.050496
1744	H	0.673307	0.66025	0.318776
1745	H	0.6064	0.637866	0.06658
1746	H	0.675886	0.548642	0.062884
1747	C	0.640013	0.588895	0.110891
1748	C	0.665432	0.604633	0.130468
1749	C	0.679151	0.581089	0.162292
1750	C	0.663631	0.541505	0.174969
1751	C	0.635571	0.529083	0.160346
1752	C	0.623379	0.554776	0.128824
1753	H	0.673438	0.518671	0.193439
1754	H	0.606409	0.541302	0.112596
1755	H	0.675545	0.63119	0.116958
1756	C	0.622366	0.423708	0.110481
1757	C	0.596977	0.407976	0.13013
1758	C	0.583377	0.43126	0.162215
1759	C	0.598982	0.470719	0.175023
1760	C	0.627043	0.483046	0.160405
1761	C	0.63907	0.457671	0.1286
1762	H	0.589308	0.493411	0.19375
1763	H	0.656114	0.470966	0.112378
1764	H	0.586742	0.381698	0.116397
1765	C	0.89016	0.590614	0.277224
1766	C	0.915586	0.574846	0.296788
1767	C	0.929174	0.598022	0.328943
1768	C	0.913573	0.637446	0.008493
1769	C	0.885487	0.649777	0.327338
1770	C	0.873448	0.624446	0.295481
1771	H	0.92326	0.660125	0.02722
1772	H	0.856358	0.637683	0.27931
1773	H	0.925824	0.548604	0.283002
1774	C	0.872284	0.42188	0.277195
1775	C	0.846869	0.437676	0.296767
1776	C	0.833253	0.414467	0.328866
1777	C	0.848821	0.374988	0.008359
1778	C	0.876874	0.36243	0.327153
1779	C	0.888931	0.387961	0.295434
1780	H	0.839095	0.352323	0.027058
1781	H	0.90601	0.37469	0.279273
1782	H	0.836653	0.463924	0.282953
1783	C	0.872304	0.423491	0.23499
1784	C	0.846891	0.40775	0.215469
1785	C	0.833197	0.431264	0.183607
1786	C	0.848762	0.4708	0.170887
1787	C	0.876833	0.483317	0.185386
1788	C	0.888863	0.457773	0.217144
1789	H	0.83901	0.493539	0.152279
1790	H	0.905945	0.470953	0.233369
1791	H	0.836765	0.381288	0.229107
1792	C	0.890189	0.589	0.235039
1793	C	0.915588	0.604654	0.215437
1794	C	0.929272	0.58115	0.183552
1795	C	0.913693	0.541637	0.170817
1796	C	0.885614	0.529215	0.185302
1797	C	0.873697	0.554617	0.217233
1798	H	0.923413	0.518905	0.152172
1799	H	0.856504	0.541451	0.233268
1800	H	0.925677	0.631254	0.228907
1801	C	0.555619	0.416473	0.178302
1802	C	0.544311	0.436224	0.213572
1803	C	0.520604	0.418053	0.235255
1804	C	0.507012	0.378612	0.219714
1805	C	0.513839	0.359053	0.181574
1806	C	0.538502	0.37984	0.16276
1807	H	0.991977	0.363953	0.237978
1808	H	0.544654	0.366992	0.136266
1809	H	0.555761	0.461282	0.22748
1810	C	0.706922	0.595846	0.178329
1811	C	0.718177	0.576186	0.213661
1812	C	0.741858	0.594418	0.235349
1813	C	0.755423	0.633873	0.219787
1814	C	0.748652	0.653323	0.181583
1815	C	0.724062	0.632398	0.162703
1816	H	0.770369	0.648657	0.238107
1817	H	0.718044	0.644931	0.136022
1818	H	0.706677	0.5512	0.227609
1819	C	0.706965	0.583275	0.334205
1820	C	0.718227	0.602942	0.29887
1821	C	0.741825	0.584595	0.277072
1822	C	0.755402	0.54516	0.292677
1823	C	0.748658	0.525736	0.330895
1824	C	0.724084	0.546676	0.016452
1825	H	0.770299	0.530298	0.274328
1826	H	0.718031	0.534044	0.043071
1827	H	0.706719	0.62788	0.284898
1828	C	0.555479	0.429267	0.334118
1829	C	0.544215	0.409638	0.298774
1830	C	0.520589	0.427934	0.276966
1831	C	0.507071	0.467396	0.292637
1832	C	0.513795	0.486775	0.330883
1833	C	0.538347	0.465796	0.01644
1834	H	0.992204	0.482326	0.274286
1835	H	0.544344	0.478265	0.043151
1836	H	0.555743	0.384719	0.284803
1837	C	0.957036	0.59592	0.167489
1838	C	0.968309	0.576277	0.132147
1839	C	0.992005	0.594519	0.110413
1840	C	0.005422	0.634086	0.125985
1841	C	0.998692	0.653486	0.164216
1842	C	0.974168	0.632459	0.18314
1843	H	0.520252	0.649036	0.107592
1844	H	0.968217	0.644854	0.209901
1845	H	0.956796	0.551305	0.118216
1846	C	0.805441	0.416466	0.167539
1847	C	0.794172	0.436062	0.132177
1848	C	0.770461	0.417915	0.110422
1849	C	0.757031	0.378365	0.126032
1850	C	0.763792	0.358898	0.164227
1851	C	0.788337	0.379877	0.183137
1852	H	0.742113	0.363523	0.107708
1853	H	0.794349	0.367357	0.209823
1854	H	0.805655	0.461126	0.118333
1855	C	0.805517	0.429335	0.01163
1856	C	0.794236	0.409722	0.046981
1857	C	0.770564	0.427904	0.068748
1858	C	0.757035	0.467359	0.053102
1859	C	0.763829	0.486867	0.014932
1860	C	0.788436	0.465985	0.32941
1861	H	0.742059	0.482122	0.071386
1862	H	0.794555	0.478732	0.30286
1863	H	0.805698	0.384669	0.060859
1864	C	0.956914	0.583156	0.011699
1865	C	0.968217	0.602871	0.046991
1866	C	0.991857	0.584544	0.068709
1867	C	0.005444	0.545122	0.053126
1868	C	0.998642	0.525652	0.014945
1869	C	0.974007	0.54651	0.329463
1870	H	0.520449	0.530406	0.071399
1871	H	0.967868	0.533719	0.302944
1872	H	0.956768	0.62788	0.060955
1873	C	0.622333	0.422212	0.401624
1874	C	0.596901	0.437876	0.382114
1875	C	0.58325	0.414504	0.350148
1876	C	0.598831	0.375004	0.670729
1877	C	0.626928	0.36262	0.35184
1878	C	0.638995	0.388127	0.383627
1879	H	0.589081	0.352235	0.652147
1880	H	0.656057	0.374771	0.399776
1881	H	0.586781	0.464378	0.395699
1882	C	0.64024	0.590635	0.402042
1883	C	0.665683	0.574971	0.382503
1884	C	0.679236	0.59813	0.350327
1885	C	0.663617	0.637555	0.670819
1886	C	0.635576	0.64998	0.352172
1887	C	0.623456	0.624425	0.38383
1888	H	0.673307	0.66025	0.652108
1889	H	0.6064	0.637866	0.399914
1890	H	0.675886	0.548642	0.396219
1891	C	0.640013	0.588895	0.444224
1892	C	0.665432	0.604633	0.463802
1893	C	0.679151	0.581089	0.495626
1894	C	0.663631	0.541505	0.508304
1895	C	0.635571	0.529083	0.49368
1896	C	0.623379	0.554776	0.462158
1897	H	0.673438	0.518671	0.526773
1898	H	0.606409	0.541302	0.445928
1899	H	0.675545	0.63119	0.450293
1900	C	0.622366	0.423708	0.443815
1901	C	0.596977	0.407976	0.463465
1902	C	0.583377	0.43126	0.495548
1903	C	0.598982	0.470719	0.508358
1904	C	0.627043	0.483046	0.493739
1905	C	0.63907	0.457671	0.461934
1906	H	0.589308	0.493411	0.527084
1907	H	0.656114	0.470966	0.44571
1908	H	0.586742	0.381698	0.449731
1909	C	0.89016	0.590614	0.610557
1910	C	0.915586	0.574846	0.63012
1911	C	0.929174	0.598022	0.662275
1912	C	0.913573	0.637446	0.341828
1913	C	0.885487	0.649777	0.660673
1914	C	0.873448	0.624446	0.628814
1915	H	0.92326	0.660125	0.360554
1916	H	0.856358	0.637683	0.612644
1917	H	0.925824	0.548604	0.616336
1918	C	0.872284	0.42188	0.61053
1919	C	0.846869	0.437676	0.630099
1920	C	0.833253	0.414467	0.6622
1921	C	0.848821	0.374988	0.341694
1922	C	0.876874	0.36243	0.660487
1923	C	0.888931	0.387961	0.628769
1924	H	0.839095	0.352323	0.360393
1925	H	0.90601	0.37469	0.612608
1926	H	0.836653	0.463924	0.616288
1927	C	0.872304	0.423491	0.568324
1928	C	0.846891	0.40775	0.548803
1929	C	0.833197	0.431264	0.516941
1930	C	0.848762	0.4708	0.50422
1931	C	0.876833	0.483317	0.51872
1932	C	0.888863	0.457773	0.550477
1933	H	0.83901	0.493539	0.485614
1934	H	0.905945	0.470953	0.566701
1935	H	0.836765	0.381288	0.562441
1936	C	0.890189	0.589	0.568372
1937	C	0.915588	0.604654	0.54877
1938	C	0.929272	0.58115	0.516884
1939	C	0.913693	0.541637	0.504152
1940	C	0.885614	0.529215	0.518636
1941	C	0.873697	0.554617	0.550567
1942	H	0.923413	0.518905	0.485506
1943	H	0.856504	0.541451	0.566602
1944	H	0.925677	0.631254	0.562241
1945	C	0.555619	0.416473	0.511637
1946	C	0.544311	0.436224	0.546905
1947	C	0.520604	0.418053	0.56859
1948	C	0.507012	0.378612	0.553048
1949	C	0.513839	0.359053	0.514908
1950	C	0.538502	0.37984	0.496095
1951	H	0.991977	0.363953	0.571311
1952	H	0.544654	0.366992	0.469599
1953	H	0.555761	0.461282	0.560815
1954	C	0.706922	0.595846	0.511661
1955	C	0.718177	0.576186	0.546994
1956	C	0.741858	0.594418	0.568683
1957	C	0.755423	0.633873	0.55312
1958	C	0.748652	0.653323	0.514917
1959	C	0.724062	0.632398	0.496038
1960	H	0.770369	0.648657	0.571442
1961	H	0.718044	0.644931	0.469354
1962	H	0.706677	0.5512	0.560943
1963	C	0.706965	0.583275	0.667537
1964	C	0.718227	0.602942	0.632204
1965	C	0.741825	0.584595	0.610404
1966	C	0.755402	0.54516	0.62601
1967	C	0.748658	0.525736	0.66423
1968	C	0.724084	0.546676	0.349786
1969	H	0.770299	0.530298	0.607663
1970	H	0.718031	0.534044	0.376405
1971	H	0.706719	0.62788	0.618231
1972	C	0.555479	0.429267	0.667453
1973	C	0.544215	0.409638	0.632108
1974	C	0.520589	0.427934	0.6103
1975	C	0.507071	0.467396	0.625971
1976	C	0.513795	0.486775	0.664218
1977	C	0.538347	0.465796	0.349774
1978	H	0.992204	0.482326	0.607618
1979	H	0.544344	0.478265	0.376485
1980	H	0.555743	0.384719	0.618138
1981	C	0.957036	0.59592	0.500821
1982	C	0.968309	0.576277	0.46548
1983	C	0.992005	0.594519	0.443746
1984	C	0.005422	0.634086	0.459318
1985	C	0.998692	0.653486	0.497551
1986	C	0.974168	0.632459	0.516474
1987	H	0.520252	0.649036	0.440927
1988	H	0.968217	0.644854	0.543233
1989	H	0.956796	0.551305	0.451549
1990	C	0.805441	0.416466	0.500872
1991	C	0.794172	0.436062	0.46551
1992	C	0.770461	0.417915	0.443755
1993	C	0.757031	0.378365	0.459366
1994	C	0.763792	0.358898	0.49756
1995	C	0.788337	0.379877	0.516471
1996	H	0.742113	0.363523	0.441043
1997	H	0.794349	0.367357	0.543156
1998	H	0.805655	0.461126	0.451665
1999	C	0.805517	0.429335	0.344964
2000	C	0.794236	0.409722	0.380315
2001	C	0.770564	0.427904	0.402081
2002	C	0.757035	0.467359	0.386434
2003	C	0.763829	0.486867	0.348267
2004	C	0.788436	0.465985	0.662745
2005	H	0.742059	0.482122	0.404721
2006	H	0.794555	0.478732	0.636195
2007	H	0.805698	0.384669	0.394192
2008	C	0.956914	0.583156	0.345033
2009	C	0.968217	0.602871	0.380324
2010	C	0.991857	0.584544	0.402042
2011	C	0.005444	0.545122	0.386461
2012	C	0.998642	0.525652	0.348279
2013	C	0.974007	0.54651	0.662798
2014	H	0.520449	0.530406	0.404733
2015	H	0.967868	0.533719	0.636276
2016	H	0.956768	0.62788	0.394288
2017	C	0.622333	0.422212	0.734959
2018	C	0.596901	0.437876	0.715446
2019	C	0.58325	0.414504	0.68348
2020	C	0.598831	0.375004	0.004064
2021	C	0.626928	0.36262	0.685175
2022	C	0.638995	0.388127	0.716962
2023	H	0.589081	0.352235	0.985479
2024	H	0.656057	0.374771	0.733108
2025	H	0.586781	0.464378	0.729031
2026	C	0.64024	0.590635	0.735377
2027	C	0.665683	0.574971	0.715838
2028	C	0.679236	0.59813	0.683662
2029	C	0.663617	0.637555	0.004154
2030	C	0.635576	0.64998	0.685507
2031	C	0.623456	0.624425	0.717165
2032	H	0.673307	0.66025	0.985443
2033	H	0.6064	0.637866	0.733249
2034	H	0.675886	0.548642	0.729551
2035	C	0.640013	0.588895	0.777559
2036	C	0.665432	0.604633	0.797134
2037	C	0.679151	0.581089	0.828961
2038	C	0.663631	0.541505	0.841636
2039	C	0.635571	0.529083	0.827014
2040	C	0.623379	0.554776	0.79549
2041	H	0.673438	0.518671	0.860105
2042	H	0.606409	0.541302	0.779263
2043	H	0.675545	0.63119	0.783625
2044	C	0.622366	0.423708	0.77715
2045	C	0.596977	0.407976	0.796797
2046	C	0.583377	0.43126	0.828883
2047	C	0.598982	0.470719	0.84169
2048	C	0.627043	0.483046	0.827074
2049	C	0.63907	0.457671	0.795269
2050	H	0.589308	0.493411	0.860419
2051	H	0.656114	0.470966	0.779045
2052	H	0.586742	0.381698	0.783066
2053	C	0.89016	0.590614	0.943892
2054	C	0.915586	0.574846	0.963455
2055	C	0.929174	0.598022	0.99561
2056	C	0.913573	0.637446	0.67516
2057	C	0.885487	0.649777	0.994008
2058	C	0.873448	0.624446	0.962149
2059	H	0.92326	0.660125	0.693886
2060	H	0.856358	0.637683	0.945978
2061	H	0.925824	0.548604	0.94967
2062	C	0.872284	0.42188	0.943862
2063	C	0.846869	0.437676	0.963434
2064	C	0.833253	0.414467	0.995532
2065	C	0.848821	0.374988	0.675025
2066	C	0.876874	0.36243	0.993819
2067	C	0.888931	0.387961	0.962101
2068	H	0.839095	0.352323	0.693725
2069	H	0.90601	0.37469	0.94594
2070	H	0.836653	0.463924	0.94962
2071	C	0.872304	0.423491	0.901656
2072	C	0.846891	0.40775	0.882138
2073	C	0.833197	0.431264	0.850276
2074	C	0.848762	0.4708	0.837555
2075	C	0.876833	0.483317	0.852054
2076	C	0.888863	0.457773	0.883812
2077	H	0.83901	0.493539	0.818946
2078	H	0.905945	0.470953	0.900036
2079	H	0.836765	0.381288	0.895776
2080	C	0.890189	0.589	0.901707
2081	C	0.915588	0.604654	0.882105
2082	C	0.929272	0.58115	0.850219
2083	C	0.913693	0.541637	0.837484
2084	C	0.885614	0.529215	0.851971
2085	C	0.873697	0.554617	0.883902
2086	H	0.923413	0.518905	0.818838
2087	H	0.856504	0.541451	0.899934
2088	H	0.925677	0.631254	0.895576
2089	C	0.555619	0.416473	0.844969
2090	C	0.544311	0.436224	0.880239
2091	C	0.520604	0.418053	0.901922
2092	C	0.507012	0.378612	0.88638
2093	C	0.513839	0.359053	0.848243
2094	C	0.538502	0.37984	0.829427
2095	H	0.991977	0.363953	0.904646
2096	H	0.544654	0.366992	0.802934
2097	H	0.555761	0.461282	0.894147
2098	C	0.706922	0.595846	0.844996
2099	C	0.718177	0.576186	0.880329
2100	C	0.741858	0.594418	0.902018
2101	C	0.755423	0.633873	0.886455
2102	C	0.748652	0.653323	0.848249
2103	C	0.724062	0.632398	0.82937
2104	H	0.770369	0.648657	0.904774
2105	H	0.718044	0.644931	0.802689
2106	H	0.706677	0.5512	0.894275
2107	C	0.706965	0.583275	0.000872
2108	C	0.718227	0.602942	0.965539
2109	C	0.741825	0.584595	0.943739
2110	C	0.755402	0.54516	0.959344
2111	C	0.748658	0.525736	0.997562
2112	C	0.724084	0.546676	0.683121
2113	H	0.770299	0.530298	0.940995
2114	H	0.718031	0.534044	0.709739
2115	H	0.706719	0.62788	0.951566
2116	C	0.555479	0.429267	0.000788
2117	C	0.544215	0.409638	0.96544
2118	C	0.520589	0.427934	0.943635
2119	C	0.507071	0.467396	0.959306
2120	C	0.513795	0.486775	0.99755
2121	C	0.538347	0.465796	0.683106
2122	H	0.992204	0.482326	0.940953
2123	H	0.544344	0.478265	0.709817
2124	H	0.555743	0.384719	0.95147
2125	C	0.957036	0.59592	0.834156
2126	C	0.968309	0.576277	0.798814
2127	C	0.992005	0.594519	0.777081
2128	C	0.005422	0.634086	0.792653
2129	C	0.998692	0.653486	0.830883
2130	C	0.974168	0.632459	0.849806
2131	H	0.520252	0.649036	0.774259
2132	H	0.968217	0.644854	0.876568
2133	H	0.956796	0.551305	0.784883
2134	C	0.805441	0.416466	0.834207
2135	C	0.794172	0.436062	0.798844
2136	C	0.770461	0.417915	0.77709
2137	C	0.757031	0.378365	0.792701
2138	C	0.763792	0.358898	0.830895
2139	C	0.788337	0.379877	0.849803
2140	H	0.742113	0.363523	0.774375
2141	H	0.794349	0.367357	0.876491
2142	H	0.805655	0.461126	0.785
2143	C	0.805517	0.429335	0.678299
2144	C	0.794236	0.409722	0.71365
2145	C	0.770564	0.427904	0.735416
2146	C	0.757035	0.467359	0.719769
2147	C	0.763829	0.486867	0.681599
2148	C	0.788436	0.465985	0.996079
2149	H	0.742059	0.482122	0.738053
2150	H	0.794555	0.478732	0.96953
2151	H	0.805698	0.384669	0.727527
2152	C	0.956914	0.583156	0.678368
2153	C	0.968217	0.602871	0.713659
2154	C	0.991857	0.584544	0.735377
2155	C	0.005444	0.545122	0.719793
2156	C	0.998642	0.525652	0.681611
2157	C	0.974007	0.54651	0.996133
2158	H	0.520449	0.530406	0.738068
2159	H	0.967868	0.533719	0.96961
2160	H	0.956768	0.62788	0.727623
2161	C	0.622333	0.755548	0.068291
2162	C	0.596901	0.771209	0.04878
2163	C	0.58325	0.747837	0.016813
2164	C	0.598831	0.708341	0.337395
2165	C	0.626928	0.695952	0.018506
2166	C	0.638995	0.72146	0.050294
2167	H	0.589081	0.685571	0.318812
2168	H	0.656057	0.708107	0.066441
2169	H	0.586781	0.797711	0.062364
2170	C	0.64024	0.923971	0.068709
2171	C	0.665683	0.908307	0.04917
2172	C	0.679236	0.931463	0.016993
2173	C	0.663617	0.970887	0.337487
2174	C	0.635576	0.983313	0.018839
2175	C	0.623456	0.957758	0.050496
2176	H	0.673307	0.993586	0.318776
2177	H	0.6064	0.971199	0.06658
2178	H	0.675886	0.881974	0.062884
2179	C	0.640013	0.922228	0.110891
2180	C	0.665432	0.93797	0.130468
2181	C	0.679151	0.914422	0.162292
2182	C	0.663631	0.874838	0.174969
2183	C	0.635571	0.862416	0.160346
2184	C	0.623379	0.888109	0.128824
2185	H	0.673438	0.852004	0.193439
2186	H	0.606409	0.874635	0.112596
2187	H	0.675545	0.964522	0.116958
2188	C	0.622366	0.75704	0.110481
2189	C	0.596977	0.741309	0.13013
2190	C	0.583377	0.764593	0.162215
2191	C	0.598982	0.804052	0.175023
2192	C	0.627043	0.816379	0.160405
2193	C	0.63907	0.791004	0.1286
2194	H	0.589308	0.826747	0.19375
2195	H	0.656114	0.804299	0.112378
2196	H	0.586742	0.71503	0.116397
2197	C	0.89016	0.923947	0.277224
2198	C	0.915586	0.908182	0.296788
2199	C	0.929174	0.931354	0.328943
2200	C	0.913573	0.970783	0.008493
2201	C	0.885487	0.983113	0.327338
2202	C	0.873448	0.957779	0.295481
2203	H	0.92326	0.993461	0.02722
2204	H	0.856358	0.971016	0.27931
2205	H	0.925824	0.881937	0.283002
2206	C	0.872284	0.755217	0.277195
2207	C	0.846869	0.771009	0.296767
2208	C	0.833253	0.747799	0.328866
2209	C	0.848821	0.708324	0.008359
2210	C	0.876874	0.695766	0.327153
2211	C	0.888931	0.721294	0.295434
2212	H	0.839095	0.685656	0.027058
2213	H	0.90601	0.708026	0.279273
2214	H	0.836653	0.797261	0.282953
2215	C	0.872304	0.756824	0.23499
2216	C	0.846891	0.741082	0.215469
2217	C	0.833197	0.764597	0.183607
2218	C	0.848762	0.804133	0.170887
2219	C	0.876833	0.81665	0.185386
2220	C	0.888863	0.791105	0.217144
2221	H	0.83901	0.826872	0.152279
2222	H	0.905945	0.804285	0.233369
2223	H	0.836765	0.714624	0.229107
2224	C	0.890189	0.922333	0.235039
2225	C	0.915588	0.937987	0.215437
2226	C	0.929272	0.914486	0.183552
2227	C	0.913693	0.87497	0.170817
2228	C	0.885614	0.862551	0.185302
2229	C	0.873697	0.887954	0.217233
2230	H	0.923413	0.852237	0.152172
2231	H	0.856504	0.874787	0.233268
2232	H	0.925677	0.964587	0.228907
2233	C	0.555619	0.749806	0.178302
2234	C	0.544311	0.769557	0.213572
2235	C	0.520604	0.75139	0.235255
2236	C	0.507012	0.711944	0.219714
2237	C	0.513839	0.692386	0.181574
2238	C	0.538502	0.713173	0.16276
2239	H	0.991977	0.697289	0.237978
2240	H	0.544654	0.700328	0.136266
2241	H	0.555761	0.794614	0.22748
2242	C	0.706922	0.929179	0.178329
2243	C	0.718177	0.909519	0.213661
2244	C	0.741858	0.927754	0.235349
2245	C	0.755423	0.967206	0.219787
2246	C	0.748652	0.986656	0.181583
2247	C	0.724062	0.96573	0.162703
2248	H	0.770369	0.98199	0.238107
2249	H	0.718044	0.978264	0.136022
2250	H	0.706677	0.884536	0.227609
2251	C	0.706965	0.916608	0.334205
2252	C	0.718227	0.936278	0.29887
2253	C	0.741825	0.917927	0.277072
2254	C	0.755402	0.878492	0.292677
2255	C	0.748658	0.859073	0.330895
2256	C	0.724084	0.880008	0.016452
2257	H	0.770299	0.863631	0.274328
2258	H	0.718031	0.867377	0.043071
2259	H	0.706719	0.961213	0.284898
2260	C	0.555479	0.7626	0.334118
2261	C	0.544215	0.742974	0.298774
2262	C	0.520589	0.761267	0.276966
2263	C	0.507071	0.800732	0.292637
2264	C	0.513795	0.820108	0.330883
2265	C	0.538347	0.799132	0.01644
2266	H	0.992204	0.815658	0.274286
2267	H	0.544344	0.811598	0.043151
2268	H	0.555743	0.718052	0.284803
2269	C	0.957036	0.929253	0.167489
2270	C	0.968309	0.90961	0.132147
2271	C	0.992005	0.927852	0.110413
2272	C	0.005422	0.967419	0.125985
2273	C	0.998692	0.986818	0.164216
2274	C	0.974168	0.965791	0.18314
2275	H	0.520252	0.982369	0.107592
2276	H	0.968217	0.978186	0.209901
2277	H	0.956796	0.884637	0.118216
2278	C	0.805441	0.749803	0.167539
2279	C	0.794172	0.769395	0.132177
2280	C	0.770461	0.751247	0.110422
2281	C	0.757031	0.711697	0.126032
2282	C	0.763792	0.69223	0.164227
2283	C	0.788337	0.71321	0.183137
2284	H	0.742113	0.696856	0.107708
2285	H	0.794349	0.70069	0.209823
2286	H	0.805655	0.794459	0.118333
2287	C	0.805517	0.762668	0.01163
2288	C	0.794236	0.743055	0.046981
2289	C	0.770564	0.761236	0.068748
2290	C	0.757035	0.800692	0.053102
2291	C	0.763829	0.820199	0.014932
2292	C	0.788436	0.799318	0.32941
2293	H	0.742059	0.815455	0.071386
2294	H	0.794555	0.812068	0.30286
2295	H	0.805698	0.718001	0.060859
2296	C	0.956914	0.916493	0.011699
2297	C	0.968217	0.936203	0.046991
2298	C	0.991857	0.917877	0.068709
2299	C	0.005444	0.878455	0.053126
2300	C	0.998642	0.858985	0.014945
2301	C	0.974007	0.879843	0.329463
2302	H	0.520449	0.863739	0.071399
2303	H	0.967868	0.867052	0.302944
2304	H	0.956768	0.961216	0.060955
2305	C	0.622333	0.755548	0.401624
2306	C	0.596901	0.771209	0.382114
2307	C	0.58325	0.747837	0.350148
2308	C	0.598831	0.708341	0.670729
2309	C	0.626928	0.695952	0.35184
2310	C	0.638995	0.72146	0.383627
2311	H	0.589081	0.685571	0.652147
2312	H	0.656057	0.708107	0.399776
2313	H	0.586781	0.797711	0.395699
2314	C	0.64024	0.923971	0.402042
2315	C	0.665683	0.908307	0.382503
2316	C	0.679236	0.931463	0.350327
2317	C	0.663617	0.970887	0.670819
2318	C	0.635576	0.983313	0.352172
2319	C	0.623456	0.957758	0.38383
2320	H	0.673307	0.993586	0.652108
2321	H	0.6064	0.971199	0.399914
2322	H	0.675886	0.881974	0.396219
2323	C	0.640013	0.922228	0.444224
2324	C	0.665432	0.93797	0.463802
2325	C	0.679151	0.914422	0.495626
2326	C	0.663631	0.874838	0.508304
2327	C	0.635571	0.862416	0.49368
2328	C	0.623379	0.888109	0.462158
2329	H	0.673438	0.852004	0.526773
2330	H	0.606409	0.874635	0.445928
2331	H	0.675545	0.964522	0.450293
2332	C	0.622366	0.75704	0.443815
2333	C	0.596977	0.741309	0.463465
2334	C	0.583377	0.764593	0.495548
2335	C	0.598982	0.804052	0.508358
2336	C	0.627043	0.816379	0.493739
2337	C	0.63907	0.791004	0.461934
2338	H	0.589308	0.826747	0.527084
2339	H	0.656114	0.804299	0.44571
2340	H	0.586742	0.71503	0.449731
2341	C	0.89016	0.923947	0.610557
2342	C	0.915586	0.908182	0.63012
2343	C	0.929174	0.931354	0.662275
2344	C	0.913573	0.970783	0.341828
2345	C	0.885487	0.983113	0.660673
2346	C	0.873448	0.957779	0.628814
2347	H	0.92326	0.993461	0.360554
2348	H	0.856358	0.971016	0.612644
2349	H	0.925824	0.881937	0.616336
2350	C	0.872284	0.755217	0.61053
2351	C	0.846869	0.771009	0.630099
2352	C	0.833253	0.747799	0.6622
2353	C	0.848821	0.708324	0.341694
2354	C	0.876874	0.695766	0.660487
2355	C	0.888931	0.721294	0.628769
2356	H	0.839095	0.685656	0.360393
2357	H	0.90601	0.708026	0.612608
2358	H	0.836653	0.797261	0.616288
2359	C	0.872304	0.756824	0.568324
2360	C	0.846891	0.741082	0.548803
2361	C	0.833197	0.764597	0.516941
2362	C	0.848762	0.804133	0.50422
2363	C	0.876833	0.81665	0.51872
2364	C	0.888863	0.791105	0.550477
2365	H	0.83901	0.826872	0.485614
2366	H	0.905945	0.804285	0.566701
2367	H	0.836765	0.714624	0.562441
2368	C	0.890189	0.922333	0.568372
2369	C	0.915588	0.937987	0.54877
2370	C	0.929272	0.914486	0.516884
2371	C	0.913693	0.87497	0.504152
2372	C	0.885614	0.862551	0.518636
2373	C	0.873697	0.887954	0.550567
2374	H	0.923413	0.852237	0.485506
2375	H	0.856504	0.874787	0.566602
2376	H	0.925677	0.964587	0.562241
2377	C	0.555619	0.749806	0.511637
2378	C	0.544311	0.769557	0.546905
2379	C	0.520604	0.75139	0.56859
2380	C	0.507012	0.711944	0.553048
2381	C	0.513839	0.692386	0.514908
2382	C	0.538502	0.713173	0.496095
2383	H	0.991977	0.697289	0.571311
2384	H	0.544654	0.700328	0.469599
2385	H	0.555761	0.794614	0.560815
2386	C	0.706922	0.929179	0.511661
2387	C	0.718177	0.909519	0.546994
2388	C	0.741858	0.927754	0.568683
2389	C	0.755423	0.967206	0.55312
2390	C	0.748652	0.986656	0.514917
2391	C	0.724062	0.96573	0.496038
2392	H	0.770369	0.98199	0.571442
2393	H	0.718044	0.978264	0.469354
2394	H	0.706677	0.884536	0.560943
2395	C	0.706965	0.916608	0.667537
2396	C	0.718227	0.936278	0.632204
2397	C	0.741825	0.917927	0.610404
2398	C	0.755402	0.878492	0.62601
2399	C	0.748658	0.859073	0.66423
2400	C	0.724084	0.880008	0.349786
2401	H	0.770299	0.863631	0.607663
2402	H	0.718031	0.867377	0.376405
2403	H	0.706719	0.961213	0.618231
2404	C	0.555479	0.7626	0.667453
2405	C	0.544215	0.742974	0.632108
2406	C	0.520589	0.761267	0.6103
2407	C	0.507071	0.800732	0.625971
2408	C	0.513795	0.820108	0.664218
2409	C	0.538347	0.799132	0.349774
2410	H	0.992204	0.815658	0.607618
2411	H	0.544344	0.811598	0.376485
2412	H	0.555743	0.718052	0.618138
2413	C	0.957036	0.929253	0.500821
2414	C	0.968309	0.90961	0.46548
2415	C	0.992005	0.927852	0.443746
2416	C	0.005422	0.967419	0.459318
2417	C	0.998692	0.986818	0.497551
2418	C	0.974168	0.965791	0.516474
2419	H	0.520252	0.982369	0.440927
2420	H	0.968217	0.978186	0.543233
2421	H	0.956796	0.884637	0.451549
2422	C	0.805441	0.749803	0.500872
2423	C	0.794172	0.769395	0.46551
2424	C	0.770461	0.751247	0.443755
2425	C	0.757031	0.711697	0.459366
2426	C	0.763792	0.69223	0.49756
2427	C	0.788337	0.71321	0.516471
2428	H	0.742113	0.696856	0.441043
2429	H	0.794349	0.70069	0.543156
2430	H	0.805655	0.794459	0.451665
2431	C	0.805517	0.762668	0.344964
2432	C	0.794236	0.743055	0.380315
2433	C	0.770564	0.761236	0.402081
2434	C	0.757035	0.800692	0.386434
2435	C	0.763829	0.820199	0.348267
2436	C	0.788436	0.799318	0.662745
2437	H	0.742059	0.815455	0.404721
2438	H	0.794555	0.812068	0.636195
2439	H	0.805698	0.718001	0.394192
2440	C	0.956914	0.916493	0.345033
2441	C	0.968217	0.936203	0.380324
2442	C	0.991857	0.917877	0.402042
2443	C	0.005444	0.878455	0.386461
2444	C	0.998642	0.858985	0.348279
2445	C	0.974007	0.879843	0.662798
2446	H	0.520449	0.863739	0.404733
2447	H	0.967868	0.867052	0.636276
2448	H	0.956768	0.961216	0.394288
2449	C	0.622333	0.755548	0.734959
2450	C	0.596901	0.771209	0.715446
2451	C	0.58325	0.747837	0.68348
2452	C	0.598831	0.708341	0.004064
2453	C	0.626928	0.695952	0.685175
2454	C	0.638995	0.72146	0.716962
2455	H	0.589081	0.685571	0.985479
2456	H	0.656057	0.708107	0.733108
2457	H	0.586781	0.797711	0.729031
2458	C	0.64024	0.923971	0.735377
2459	C	0.665683	0.908307	0.715838
2460	C	0.679236	0.931463	0.683662
2461	C	0.663617	0.970887	0.004154
2462	C	0.635576	0.983313	0.685507
2463	C	0.623456	0.957758	0.717165
2464	H	0.673307	0.993586	0.985443
2465	H	0.6064	0.971199	0.733249
2466	H	0.675886	0.881974	0.729551
2467	C	0.640013	0.922228	0.777559
2468	C	0.665432	0.93797	0.797134
2469	C	0.679151	0.914422	0.828961
2470	C	0.663631	0.874838	0.841636
2471	C	0.635571	0.862416	0.827014
2472	C	0.623379	0.888109	0.79549
2473	H	0.673438	0.852004	0.860105
2474	H	0.606409	0.874635	0.779263
2475	H	0.675545	0.964522	0.783625
2476	C	0.622366	0.75704	0.77715
2477	C	0.596977	0.741309	0.796797
2478	C	0.583377	0.764593	0.828883
2479	C	0.598982	0.804052	0.84169
2480	C	0.627043	0.816379	0.827074
2481	C	0.63907	0.791004	0.795269
2482	H	0.589308	0.826747	0.860419
2483	H	0.656114	0.804299	0.779045
2484	H	0.586742	0.71503	0.783066
2485	C	0.89016	0.923947	0.943892
2486	C	0.915586	0.908182	0.963455
2487	C	0.929174	0.931354	0.99561
2488	C	0.913573	0.970783	0.67516
2489	C	0.885487	0.983113	0.994008
2490	C	0.873448	0.957779	0.962149
2491	H	0.92326	0.993461	0.693886
2492	H	0.856358	0.971016	0.945978
2493	H	0.925824	0.881937	0.94967
2494	C	0.872284	0.755217	0.943862
2495	C	0.846869	0.771009	0.963434
2496	C	0.833253	0.747799	0.995532
2497	C	0.848821	0.708324	0.675025
2498	C	0.876874	0.695766	0.993819
2499	C	0.888931	0.721294	0.962101
2500	H	0.839095	0.685656	0.693725
2501	H	0.90601	0.708026	0.94594
2502	H	0.836653	0.797261	0.94962
2503	C	0.872304	0.756824	0.901656
2504	C	0.846891	0.741082	0.882138
2505	C	0.833197	0.764597	0.850276
2506	C	0.848762	0.804133	0.837555
2507	C	0.876833	0.81665	0.852054
2508	C	0.888863	0.791105	0.883812
2509	H	0.83901	0.826872	0.818946
2510	H	0.905945	0.804285	0.900036
2511	H	0.836765	0.714624	0.895776
2512	C	0.890189	0.922333	0.901707
2513	C	0.915588	0.937987	0.882105
2514	C	0.929272	0.914486	0.850219
2515	C	0.913693	0.87497	0.837484
2516	C	0.885614	0.862551	0.851971
2517	C	0.873697	0.887954	0.883902
2518	H	0.923413	0.852237	0.818838
2519	H	0.856504	0.874787	0.899934
2520	H	0.925677	0.964587	0.895576
2521	C	0.555619	0.749806	0.844969
2522	C	0.544311	0.769557	0.880239
2523	C	0.520604	0.75139	0.901922
2524	C	0.507012	0.711944	0.88638
2525	C	0.513839	0.692386	0.848243
2526	C	0.538502	0.713173	0.829427
2527	H	0.991977	0.697289	0.904646
2528	H	0.544654	0.700328	0.802934
2529	H	0.555761	0.794614	0.894147
2530	C	0.706922	0.929179	0.844996
2531	C	0.718177	0.909519	0.880329
2532	C	0.741858	0.927754	0.902018
2533	C	0.755423	0.967206	0.886455
2534	C	0.748652	0.986656	0.848249
2535	C	0.724062	0.96573	0.82937
2536	H	0.770369	0.98199	0.904774
2537	H	0.718044	0.978264	0.802689
2538	H	0.706677	0.884536	0.894275
2539	C	0.706965	0.916608	0.000872
2540	C	0.718227	0.936278	0.965539
2541	C	0.741825	0.917927	0.943739
2542	C	0.755402	0.878492	0.959344
2543	C	0.748658	0.859073	0.997562
2544	C	0.724084	0.880008	0.683121
2545	H	0.770299	0.863631	0.940995
2546	H	0.718031	0.867377	0.709739
2547	H	0.706719	0.961213	0.951566
2548	C	0.555479	0.7626	0.000788
2549	C	0.544215	0.742974	0.96544
2550	C	0.520589	0.761267	0.943635
2551	C	0.507071	0.800732	0.959306
2552	C	0.513795	0.820108	0.99755
2553	C	0.538347	0.799132	0.683106
2554	H	0.992204	0.815658	0.940953
2555	H	0.544344	0.811598	0.709817
2556	H	0.555743	0.718052	0.95147
2557	C	0.957036	0.929253	0.834156
2558	C	0.968309	0.90961	0.798814
2559	C	0.992005	0.927852	0.777081
2560	C	0.005422	0.967419	0.792653
2561	C	0.998692	0.986818	0.830883
2562	C	0.974168	0.965791	0.849806
2563	H	0.520252	0.982369	0.774259
2564	H	0.968217	0.978186	0.876568
2565	H	0.956796	0.884637	0.784883
2566	C	0.805441	0.749803	0.834207
2567	C	0.794172	0.769395	0.798844
2568	C	0.770461	0.751247	0.77709
2569	C	0.757031	0.711697	0.792701
2570	C	0.763792	0.69223	0.830895
2571	C	0.788337	0.71321	0.849803
2572	H	0.742113	0.696856	0.774375
2573	H	0.794349	0.70069	0.876491
2574	H	0.805655	0.794459	0.785
2575	C	0.805517	0.762668	0.678299
2576	C	0.794236	0.743055	0.71365
2577	C	0.770564	0.761236	0.735416
2578	C	0.757035	0.800692	0.719769
2579	C	0.763829	0.820199	0.681599
2580	C	0.788436	0.799318	0.996079
2581	H	0.742059	0.815455	0.738053
2582	H	0.794555	0.812068	0.96953
2583	H	0.805698	0.718001	0.727527
2584	C	0.956914	0.916493	0.678368
2585	C	0.968217	0.936203	0.713659
2586	C	0.991857	0.917877	0.735377
2587	C	0.005444	0.878455	0.719793
2588	C	0.998642	0.858985	0.681611
2589	C	0.974007	0.879843	0.996133
2590	H	0.520449	0.863739	0.738068
2591	H	0.967868	0.867052	0.96961
2592	H	0.956768	0.961216	0.727623
