data_C1632H896O128_2018-02-15_11:58:34
#******************************************
#
# CIF file created by Zeo++
# Zeo++ is an open source package to
# analyze microporous materials
#
#*******************************************

_cell_length_a		40.015   
_cell_length_b		39.6637   
_cell_length_c		27.1279   
_cell_angle_alpha		90.5999   
_cell_angle_beta		90   
_cell_angle_gamma		90.5123   

_symmetry_space_group_name_H-M		'P1'
_symmetry_Int_Tables_number		1
_symmetry_cell_setting		Triclinic

loop_
_symmetry_equiv_pos_as_xyz
'+x,+y,+z'

loop_
_atom_site_label
_atom_site_type_symbol
_atom_site_fract_x
_atom_site_fract_y
_atom_site_fract_z
1	C	0.99987	0.027505	0.280476
2	C	0.474463	0.05202	0.282013
3	C	0.442607	0.020375	0.214354
4	C	0.466962	0.494788	0.214221
5	C	0.463727	0.466744	0.181603
6	C	0.437448	0.464042	0.147485
7	C	0.413588	0.490192	0.147101
8	C	0.416121	0.017734	0.180144
9	C	0.47715	0.07827	0.317348
10	C	0.004639	0.080527	0.349666
11	C	0.030594	0.056525	0.347681
12	C	0.0278	0.030414	0.312536
13	C	0.494049	0.467209	0.279659
14	C	0.019235	0.442459	0.279838
15	C	0.051147	0.47421	0.213334
16	C	0.026839	0.999854	0.214034
17	C	0.077641	0.476762	0.179206
18	C	0.080257	0.004257	0.146974
19	C	0.056367	0.030355	0.148025
20	C	0.030031	0.027795	0.182037
21	C	0.466191	0.464245	0.311796
22	C	0.463248	0.437784	0.345542
23	C	0.488912	0.413439	0.345997
24	C	0.016333	0.415812	0.313653
25	H	0.489207	0.395401	0.372699
26	H	0.035603	0.399423	0.317436
27	H	0.093782	0.457186	0.175218
28	H	0.098149	0.003705	0.120025
29	H	0.011223	0.045162	0.180866
30	H	0.4492	0.483414	0.31346
31	H	0.482528	0.449366	0.180023
32	H	0.395697	0.490675	0.120166
33	H	0.399945	0.037276	0.176681
34	H	0.044938	0.011355	0.313121
35	H	0.457698	0.094404	0.322268
36	H	0.00422	0.098224	0.377366
37	C	0.496946	0.49735	0.247069
38	C	0.048814	0.4445	0.246483
39	H	0.071353	0.444456	0.269275
40	H	0.048772	0.421681	0.223507
41	C	0.444846	0.049985	0.248641
42	H	0.444762	0.072895	0.226573
43	H	0.422326	0.049827	0.271473
44	C	0.246159	0.217819	0.029628
45	C	0.271519	0.193242	0.029779
46	C	0.303105	0.225127	0.463083
47	C	0.27863	0.250605	0.463843
48	C	0.281645	0.278615	0.431944
49	C	0.307896	0.281326	0.397863
50	C	0.332063	0.255481	0.396871
51	C	0.329602	0.227917	0.429006
52	C	0.268957	0.166719	0.063864
53	C	0.241654	0.16426	0.09642
54	C	0.215758	0.188334	0.095849
55	C	0.218438	0.214779	0.062
56	C	0.251978	0.278108	0.030554
57	C	0.226734	0.302793	0.032141
58	C	0.194579	0.271298	0.464632
59	C	0.218757	0.245536	0.464451
60	C	0.168156	0.268932	0.430285
61	C	0.165452	0.241443	0.397173
62	C	0.189032	0.215047	0.397631
63	C	0.215327	0.217523	0.431804
64	C	0.280033	0.280923	0.062393
65	C	0.283079	0.307117	0.0973
66	C	0.257374	0.331394	0.099296
67	C	0.22973	0.329143	0.067271
68	H	0.257167	0.349208	0.126845
69	H	0.210438	0.345445	0.072176
70	H	0.152081	0.288579	0.426912
71	H	0.147576	0.24207	0.370226
72	H	0.234066	0.200081	0.430115
73	H	0.297092	0.261796	0.062968
74	H	0.262707	0.295833	0.430775
75	H	0.349942	0.255028	0.369901
76	H	0.345906	0.208487	0.425021
77	H	0.201298	0.233821	0.06359
78	H	0.288366	0.150462	0.067591
79	H	0.242125	0.146289	0.123209
80	C	0.248862	0.247997	0.497087
81	C	0.19704	0.300904	0.998905
82	H	0.174565	0.300881	0.021831
83	H	0.197044	0.323811	0.476826
84	C	0.30101	0.195421	0.996264
85	H	0.301045	0.172592	0.473317
86	H	0.323602	0.195521	0.018947
87	C	0.468592	0.248426	0.40396
88	C	0.444185	0.22243	0.403676
89	C	0.476055	0.191326	0.336129
90	C	0.001559	0.216193	0.337866
91	C	0.029587	0.213591	0.306021
92	C	0.032409	0.187453	0.271027
93	C	0.006399	0.163048	0.268921
94	C	0.478751	0.165067	0.300887
95	C	0.417728	0.224462	0.437945
96	C	0.415138	0.251902	0.471061
97	C	0.438994	0.278454	0.470696
98	C	0.465358	0.276367	0.43667
99	C	0.028473	0.243933	0.404642
100	C	0.053279	0.269531	0.40518
101	C	0.022117	0.301058	0.338311
102	C	0.996347	0.276448	0.33881
103	C	0.020045	0.327355	0.303838
104	C	0.492758	0.329648	0.271303
105	C	0.466457	0.305572	0.272313
106	C	0.468641	0.279325	0.306476
107	C	0.031243	0.216004	0.436655
108	C	0.057532	0.213452	0.470677
109	C	0.081949	0.239513	0.471426
110	C	0.079819	0.266966	0.439129
111	H	0.099946	0.240082	0.498237
112	H	0.096374	0.286493	0.442981
113	H	0.039771	0.343571	0.299883
114	H	0.493575	0.347403	0.244217
115	H	0.451191	0.260252	0.305089
116	H	0.012106	0.198678	0.437993
117	H	0.046867	0.232827	0.305545
118	H	0.005972	0.145308	0.241274
119	H	0.45927	0.148638	0.295903
120	H	0.484237	0.293989	0.438487
121	H	0.401489	0.204639	0.441197
122	H	0.397252	0.251036	0.498001
123	C	0.998719	0.246277	0.371376
124	C	0.0516	0.299096	0.371766
125	H	0.052004	0.322019	0.394515
126	H	0.074171	0.298959	0.34904
127	C	0.446373	0.192906	0.369319
128	H	0.423908	0.192781	0.346371
129	H	0.446152	0.16996	0.391316
130	C	0.277029	0.494326	0.154357
131	C	0.301529	0.020227	0.154925
132	C	0.269925	0.051456	0.088206
133	C	0.244467	0.026523	0.088636
134	C	0.216611	0.02921	0.056517
135	C	0.213958	0.055624	0.022712
136	C	0.239902	0.080095	0.021886
137	C	0.267343	0.07795	0.054146
138	C	0.32798	0.018096	0.189108
139	C	0.330317	0.490769	0.221597
140	C	0.306297	0.464349	0.220718
141	C	0.280041	0.466517	0.18653
142	C	0.21715	0.99881	0.154256
143	C	0.192453	0.473102	0.153957
144	C	0.223878	0.441713	0.086234
145	C	0.249692	0.466266	0.088018
146	C	0.226059	0.415632	0.050612
147	C	0.253525	0.41346	0.018323
148	C	0.279881	0.437444	0.020695
149	C	0.27758	0.463482	0.055951
150	C	0.214158	0.026837	0.186876
151	C	0.187713	0.02939	0.220712
152	C	0.163554	0.003104	0.220957
153	C	0.165912	0.475554	0.188011
154	H	0.145554	0.002537	0.247746
155	H	0.149449	0.455934	0.191257
156	H	0.206326	0.399485	0.04561
157	H	0.252828	0.395867	0.99048
158	H	0.295067	0.482537	0.055517
159	H	0.233191	0.04429	0.188652
160	H	0.199378	0.009946	0.055016
161	H	0.240353	0.098048	0.995066
162	H	0.286805	0.094465	0.050281
163	H	0.261095	0.448968	0.18781
164	H	0.344239	0.037881	0.193052
165	H	0.348186	0.49163	0.24859
166	C	0.247109	0.49646	0.121368
167	C	0.194283	0.443575	0.119561
168	H	0.193853	0.420612	0.141515
169	H	0.171777	0.443714	0.0967
170	C	0.299484	0.049787	0.121557
171	H	0.322024	0.049931	0.098766
172	H	0.29966	0.072691	0.144351
173	C	0.041134	0.103848	0.060755
174	C	0.050222	0.085595	0.103945
175	C	0.049986	0.049875	0.105487
176	C	0.040261	0.031718	0.063146
177	C	0.034793	0.048235	0.018633
178	C	0.032199	0.083996	0.018875
179	H	0.058972	0.098165	0.134435
180	H	0.041672	0.005863	0.062615
181	C	0.041512	0.140031	0.058211
182	C	0.033427	0.159939	0.100259
183	C	0.036708	0.195714	0.100439
184	C	0.042106	0.212137	0.055757
185	C	0.0511	0.19394	0.013272
186	C	0.0506	0.158228	0.014832
187	H	0.044026	0.237989	0.056293
188	H	0.058759	0.145609	0.484159
189	O	0.019021	0.099134	0.478411
190	O	0.020382	0.144838	0.141022
191	H	0.994867	0.100998	0.484509
192	H	0.996146	0.142912	0.135402
193	C	0.204153	0.140271	0.310583
194	C	0.194903	0.159213	0.3536
195	C	0.195138	0.194941	0.355016
196	C	0.205171	0.212406	0.312771
197	C	0.21057	0.195247	0.268185
198	C	0.213151	0.159477	0.268658
199	H	0.186069	0.147154	0.384094
200	H	0.203713	0.238244	0.312128
201	C	0.20373	0.104045	0.30827
202	C	0.211625	0.084766	0.350462
203	C	0.2083	0.049016	0.350701
204	C	0.202841	0.031932	0.306001
205	C	0.194015	0.049473	0.263416
206	C	0.194678	0.085201	0.264902
207	H	0.201055	0.006074	0.306408
208	H	0.186542	0.097352	0.234194
209	O	0.226064	0.143717	0.228029
210	O	0.224089	0.10043	0.391647
211	H	0.250213	0.14169	0.233973
212	H	0.24834	0.102695	0.386494
213	C	0.392046	0.289974	0.186261
214	C	0.41095	0.299061	0.229267
215	C	0.446386	0.299039	0.230012
216	C	0.46354	0.289428	0.187084
217	C	0.446312	0.283555	0.142932
218	C	0.410858	0.280841	0.143902
219	H	0.399097	0.307809	0.260138
220	H	0.48916	0.291172	0.185927
221	C	0.356184	0.290411	0.184208
222	C	0.33669	0.281853	0.226059
223	C	0.301206	0.284399	0.226012
224	C	0.284768	0.289613	0.181284
225	C	0.302593	0.300164	0.139622
226	C	0.337979	0.3001	0.141269
227	H	0.259132	0.290924	0.18164
228	H	0.350397	0.30887	0.111016
229	O	0.39499	0.26767	0.103391
230	O	0.351904	0.269158	0.266798
231	H	0.392762	0.24329	0.109019
232	H	0.353704	0.244703	0.261109
233	C	0.35375	0.453953	0.434594
234	C	0.335056	0.444046	0.477125
235	C	0.299665	0.444636	0.478574
236	C	0.282278	0.455838	0.437016
237	C	0.299178	0.461372	0.392654
238	C	0.33469	0.463596	0.393011
239	H	0.34703	0.434566	0.007151
240	H	0.256635	0.45439	0.43622
241	C	0.389615	0.453605	0.432515
242	C	0.408866	0.46157	0.475108
243	C	0.444251	0.458509	0.47551
244	C	0.46107	0.452939	0.431022
245	C	0.443461	0.444074	0.388057
246	C	0.408045	0.444757	0.389093
247	H	0.486684	0.45135	0.431704
248	H	0.395771	0.436736	0.35804
249	O	0.350304	0.476888	0.352812
250	O	0.393492	0.473974	0.016319
251	H	0.352637	0.501235	0.359376
252	H	0.391545	0.498442	0.011621
253	C	0.291544	0.354535	0.310597
254	C	0.300895	0.336469	0.353822
255	C	0.301413	0.300753	0.355283
256	C	0.292067	0.282445	0.312898
257	C	0.286462	0.298865	0.268361
258	C	0.283127	0.334551	0.268633
259	H	0.30925	0.349212	0.384404
260	H	0.293895	0.25662	0.312353
261	C	0.291155	0.3907	0.308075
262	C	0.282368	0.410404	0.349996
263	C	0.284922	0.446233	0.350248
264	C	0.290334	0.462784	0.305645
265	C	0.299893	0.444771	0.263255
266	C	0.300122	0.40907	0.264814
267	H	0.291883	0.488657	0.306238
268	H	0.308721	0.396618	0.234261
269	O	0.26969	0.349459	0.228167
270	O	0.269463	0.394997	0.390615
271	H	0.245485	0.350783	0.234174
272	H	0.245289	0.392593	0.384776
273	C	0.453616	0.389549	0.060408
274	C	0.444123	0.408301	0.103476
275	C	0.443623	0.44402	0.104827
276	C	0.45328	0.461648	0.062544
277	C	0.458792	0.44459	0.017923
278	C	0.462082	0.408892	0.018392
279	H	0.435691	0.396065	0.134066
280	H	0.45143	0.487457	0.061905
281	C	0.453957	0.353345	0.058116
282	C	0.462585	0.334267	0.100173
283	C	0.460026	0.298462	0.100481
284	C	0.454548	0.281247	0.055867
285	C	0.44508	0.2986	0.013404
286	C	0.445022	0.334322	0.014875
287	H	0.453167	0.255369	0.056322
288	H	0.436452	0.346301	0.484277
289	O	0.475209	0.393357	0.477726
290	O	0.474934	0.350223	0.141206
291	H	0.499411	0.391811	0.483565
292	H	0.499119	0.352945	0.135814
293	C	0.139808	0.039678	0.436209
294	C	0.158539	0.048639	0.479447
295	C	0.193971	0.049031	0.480343
296	C	0.211309	0.039889	0.437374
297	C	0.194254	0.034252	0.393034
298	C	0.158808	0.031243	0.393712
299	H	0.146537	0.057016	0.01041
300	H	0.236928	0.04174	0.436434
301	C	0.10393	0.039753	0.43413
302	C	0.084539	0.03079	0.475897
303	C	0.049067	0.033408	0.476189
304	C	0.032476	0.038824	0.431627
305	C	0.050183	0.049447	0.389885
306	C	0.085579	0.049535	0.391375
307	H	0.006854	0.040275	0.432235
308	H	0.097873	0.058564	0.361183
309	O	0.143129	0.018403	0.352832
310	O	0.099817	0.017684	0.016306
311	H	0.141001	0.993954	0.35792
312	H	0.101491	0.993266	0.010167
313	C	0.106031	0.204172	0.184537
314	C	0.087505	0.194388	0.227303
315	C	0.052112	0.194593	0.228857
316	C	0.034548	0.205399	0.187251
317	C	0.051285	0.210711	0.142715
318	C	0.086792	0.213168	0.142793
319	H	0.099624	0.18527	0.257447
320	H	0.008902	0.203887	0.186661
321	C	0.14191	0.204176	0.182447
322	C	0.161063	0.212553	0.224972
323	C	0.196435	0.209457	0.225679
324	C	0.213392	0.203681	0.181349
325	C	0.195903	0.194728	0.138301
326	C	0.160476	0.195237	0.139191
327	H	0.238993	0.201985	0.182248
328	H	0.148315	0.186965	0.108182
329	O	0.102234	0.226144	0.102239
330	O	0.145622	0.225351	0.265879
331	H	0.104443	0.250564	0.108271
332	H	0.143791	0.249784	0.260744
333	C	0.99987	0.027505	0.780475
334	C	0.474463	0.05202	0.782012
335	C	0.442607	0.020375	0.714355
336	C	0.466962	0.494788	0.714218
337	C	0.463727	0.466745	0.681604
338	C	0.437448	0.464042	0.647486
339	C	0.413588	0.490193	0.647099
340	C	0.416121	0.017734	0.680145
341	C	0.47715	0.07827	0.817347
342	C	0.004639	0.080527	0.849666
343	C	0.030594	0.056525	0.847682
344	C	0.0278	0.030414	0.812536
345	C	0.494049	0.46721	0.779656
346	C	0.019235	0.44246	0.779837
347	C	0.051147	0.474211	0.713334
348	C	0.026839	0.999854	0.714034
349	C	0.077641	0.476762	0.679205
350	C	0.080257	0.004257	0.646974
351	C	0.056368	0.030355	0.648025
352	C	0.030031	0.027795	0.682036
353	C	0.466191	0.464246	0.811795
354	C	0.463248	0.437784	0.84554
355	C	0.488912	0.413439	0.845998
356	C	0.016333	0.41581	0.813653
357	H	0.489207	0.395402	0.872698
358	H	0.035603	0.399421	0.817435
359	H	0.093782	0.457184	0.675216
360	H	0.098149	0.003705	0.620022
361	H	0.011223	0.045162	0.680867
362	H	0.4492	0.483414	0.813461
363	H	0.482528	0.449367	0.680023
364	H	0.395697	0.490676	0.620166
365	H	0.399945	0.037276	0.676679
366	H	0.044938	0.011355	0.813118
367	H	0.457698	0.094404	0.822268
368	H	0.00422	0.098224	0.877365
369	C	0.496946	0.497351	0.747068
370	C	0.048815	0.4445	0.746482
371	H	0.071353	0.444454	0.769275
372	H	0.048772	0.421682	0.723508
373	C	0.444846	0.049985	0.748639
374	H	0.444762	0.072895	0.726572
375	H	0.422326	0.049827	0.771472
376	C	0.246159	0.217819	0.529627
377	C	0.271519	0.193242	0.529778
378	C	0.303105	0.225127	0.963083
379	C	0.27863	0.250605	0.963842
380	C	0.281645	0.278616	0.931943
381	C	0.307896	0.281327	0.897862
382	C	0.332063	0.25548	0.89687
383	C	0.329602	0.227917	0.929005
384	C	0.268957	0.166719	0.563863
385	C	0.241654	0.16426	0.596418
386	C	0.215758	0.188334	0.595847
387	C	0.218438	0.214779	0.561998
388	C	0.251978	0.278106	0.530552
389	C	0.226734	0.302791	0.532141
390	C	0.194579	0.271296	0.964631
391	C	0.218757	0.245536	0.96445
392	C	0.168156	0.26893	0.930284
393	C	0.165452	0.241442	0.897173
394	C	0.189032	0.215047	0.89763
395	C	0.215327	0.217523	0.931803
396	C	0.280033	0.280924	0.562392
397	C	0.283079	0.307118	0.597299
398	C	0.257374	0.331392	0.599294
399	C	0.22973	0.329143	0.567269
400	H	0.257167	0.349208	0.626846
401	H	0.210438	0.345446	0.572176
402	H	0.152081	0.288579	0.926911
403	H	0.147576	0.24207	0.870225
404	H	0.234066	0.200081	0.930115
405	H	0.297092	0.261796	0.562967
406	H	0.262707	0.295831	0.930775
407	H	0.349942	0.255029	0.8699
408	H	0.345906	0.208487	0.92502
409	H	0.201298	0.233821	0.56359
410	H	0.288366	0.150462	0.56759
411	H	0.242125	0.146289	0.623207
412	C	0.248862	0.247997	0.997089
413	C	0.19704	0.300904	0.498904
414	H	0.174565	0.300882	0.52183
415	H	0.197044	0.323811	0.976826
416	C	0.30101	0.195421	0.496265
417	H	0.301045	0.172592	0.973316
418	H	0.323602	0.195521	0.518948
419	C	0.468592	0.248426	0.903959
420	C	0.444185	0.22243	0.903676
421	C	0.476055	0.191326	0.836129
422	C	0.001559	0.216193	0.837865
423	C	0.029587	0.213591	0.806018
424	C	0.032409	0.187453	0.771026
425	C	0.006399	0.163048	0.768921
426	C	0.478751	0.165067	0.800887
427	C	0.417728	0.224462	0.937945
428	C	0.415138	0.251902	0.97106
429	C	0.438994	0.278455	0.970695
430	C	0.465358	0.276368	0.936669
431	C	0.028473	0.243933	0.904641
432	C	0.053279	0.269532	0.90518
433	C	0.022117	0.301058	0.838311
434	C	0.996347	0.276446	0.838809
435	C	0.020045	0.327355	0.803839
436	C	0.492758	0.329649	0.771303
437	C	0.466457	0.305573	0.772313
438	C	0.468641	0.279326	0.806475
439	C	0.031243	0.216004	0.936654
440	C	0.057532	0.213452	0.970677
441	C	0.081949	0.239513	0.971425
442	C	0.079819	0.266964	0.939128
443	H	0.099946	0.240082	0.998239
444	H	0.096374	0.286493	0.94298
445	H	0.039771	0.343569	0.799884
446	H	0.493575	0.347404	0.744215
447	H	0.451191	0.260253	0.805089
448	H	0.012106	0.198678	0.937993
449	H	0.046867	0.232827	0.805546
450	H	0.005972	0.145308	0.741273
451	H	0.45927	0.148638	0.795902
452	H	0.484237	0.29399	0.938487
453	H	0.401489	0.204639	0.941196
454	H	0.397252	0.251036	0.998001
455	C	0.998719	0.246277	0.871375
456	C	0.0516	0.299097	0.871766
457	H	0.052004	0.322017	0.894515
458	H	0.074171	0.298959	0.849039
459	C	0.446373	0.192906	0.869318
460	H	0.423908	0.192781	0.84637
461	H	0.446152	0.16996	0.891315
462	C	0.277029	0.494327	0.654354
463	C	0.301529	0.020227	0.654926
464	C	0.269925	0.051456	0.588205
465	C	0.244467	0.026523	0.588636
466	C	0.216611	0.02921	0.556516
467	C	0.213958	0.055623	0.522711
468	C	0.239902	0.080095	0.521886
469	C	0.267343	0.07795	0.554146
470	C	0.32798	0.018096	0.689106
471	C	0.330317	0.490769	0.721595
472	C	0.306297	0.46435	0.720718
473	C	0.280041	0.466518	0.686529
474	C	0.21715	0.99881	0.654255
475	C	0.192453	0.473102	0.653956
476	C	0.223878	0.441714	0.586232
477	C	0.249692	0.466266	0.588017
478	C	0.226059	0.415633	0.55061
479	C	0.253525	0.413458	0.518321
480	C	0.279881	0.437445	0.520695
481	C	0.27758	0.463482	0.555952
482	C	0.214158	0.026837	0.686876
483	C	0.187713	0.029389	0.72071
484	C	0.163554	0.003104	0.720957
485	C	0.165912	0.475552	0.688011
486	H	0.145554	0.002537	0.747747
487	H	0.149449	0.455934	0.691255
488	H	0.206326	0.399483	0.545608
489	H	0.252828	0.395866	0.490481
490	H	0.295067	0.482538	0.555517
491	H	0.233191	0.04429	0.688653
492	H	0.199378	0.009946	0.555016
493	H	0.240353	0.098048	0.495067
494	H	0.286805	0.094465	0.550279
495	H	0.261095	0.448969	0.687809
496	H	0.344239	0.037881	0.693051
497	H	0.348186	0.491631	0.748591
498	C	0.247109	0.49646	0.621368
499	C	0.194283	0.443576	0.619562
500	H	0.193853	0.420613	0.641514
501	H	0.171777	0.443715	0.596698
502	C	0.299484	0.049787	0.621556
503	H	0.322024	0.049931	0.598766
504	H	0.29966	0.072691	0.644349
505	C	0.041134	0.103848	0.560756
506	C	0.050222	0.085595	0.603946
507	C	0.049986	0.049875	0.605487
508	C	0.040261	0.031718	0.563144
509	C	0.034793	0.048235	0.518631
510	C	0.032199	0.083996	0.518874
511	H	0.058972	0.098165	0.634433
512	H	0.041672	0.005863	0.562613
513	C	0.041512	0.140031	0.558212
514	C	0.033427	0.159939	0.600259
515	C	0.036708	0.195714	0.60044
516	C	0.042106	0.212137	0.555757
517	C	0.0511	0.19394	0.51327
518	C	0.0506	0.158228	0.51483
519	H	0.044026	0.237989	0.556291
520	H	0.058759	0.145609	0.984158
521	O	0.019021	0.099134	0.978411
522	O	0.020382	0.144838	0.64102
523	H	0.994867	0.100998	0.984508
524	H	0.996146	0.142912	0.635402
525	C	0.204153	0.140271	0.810582
526	C	0.194903	0.159213	0.853599
527	C	0.195138	0.194941	0.855015
528	C	0.205171	0.212406	0.812772
529	C	0.21057	0.195247	0.768184
530	C	0.213151	0.159477	0.768656
531	H	0.186069	0.147154	0.884093
532	H	0.203713	0.238244	0.812127
533	C	0.20373	0.104045	0.80827
534	C	0.211625	0.084766	0.850462
535	C	0.2083	0.049016	0.850701
536	C	0.202841	0.031932	0.806
537	C	0.194015	0.049473	0.763414
538	C	0.194678	0.085201	0.764903
539	H	0.201055	0.006074	0.806409
540	H	0.186542	0.097352	0.734191
541	O	0.226064	0.143717	0.728028
542	O	0.224089	0.10043	0.891647
543	H	0.250213	0.14169	0.733974
544	H	0.24834	0.102695	0.886493
545	C	0.392046	0.289972	0.68626
546	C	0.41095	0.299062	0.729266
547	C	0.446386	0.299039	0.730011
548	C	0.46354	0.289426	0.687082
549	C	0.446312	0.283555	0.64293
550	C	0.410858	0.280842	0.643899
551	H	0.399097	0.30781	0.760137
552	H	0.48916	0.291172	0.685925
553	C	0.356184	0.290411	0.684207
554	C	0.33669	0.281854	0.726059
555	C	0.301206	0.2844	0.726011
556	C	0.284768	0.289614	0.681284
557	C	0.302593	0.300165	0.63962
558	C	0.337979	0.300101	0.641267
559	H	0.259132	0.290922	0.681638
560	H	0.350397	0.30887	0.611016
561	O	0.39499	0.26767	0.603389
562	O	0.351904	0.269158	0.766798
563	H	0.392762	0.24329	0.609018
564	H	0.353704	0.244703	0.76111
565	C	0.353749	0.453951	0.934594
566	C	0.335056	0.444044	0.977124
567	C	0.299665	0.444634	0.978573
568	C	0.282278	0.455839	0.937016
569	C	0.299178	0.461373	0.892653
570	C	0.33469	0.463594	0.893011
571	H	0.34703	0.434567	0.507151
572	H	0.256635	0.454391	0.936219
573	C	0.389615	0.453605	0.932515
574	C	0.408866	0.46157	0.975108
575	C	0.444251	0.45851	0.97551
576	C	0.46107	0.452939	0.931022
577	C	0.443461	0.444074	0.888056
578	C	0.408045	0.444757	0.889092
579	H	0.486684	0.451351	0.931704
580	H	0.395771	0.436737	0.858037
581	O	0.350304	0.476889	0.85281
582	O	0.393492	0.473975	0.516319
583	H	0.352637	0.501236	0.859376
584	H	0.391545	0.498443	0.511619
585	C	0.291544	0.354535	0.810597
586	C	0.300895	0.336467	0.85382
587	C	0.301413	0.300754	0.855284
588	C	0.292067	0.282445	0.812897
589	C	0.286462	0.298865	0.768361
590	C	0.283127	0.334551	0.768634
591	H	0.30925	0.349212	0.884403
592	H	0.293895	0.25662	0.812351
593	C	0.291155	0.3907	0.808075
594	C	0.282368	0.410402	0.849994
595	C	0.284922	0.446234	0.850248
596	C	0.290334	0.462785	0.805646
597	C	0.299893	0.444771	0.763255
598	C	0.300122	0.409071	0.764811
599	H	0.291883	0.488657	0.806236
600	H	0.308721	0.396616	0.734262
601	O	0.26969	0.349457	0.728168
602	O	0.269463	0.394998	0.890615
603	H	0.245485	0.350784	0.734173
604	H	0.245289	0.392594	0.884775
605	C	0.453616	0.38955	0.560405
606	C	0.444123	0.408301	0.603474
607	C	0.443623	0.44402	0.604827
608	C	0.45328	0.461649	0.562543
609	C	0.458792	0.44459	0.517923
610	C	0.462082	0.408892	0.518391
611	H	0.435691	0.396065	0.634064
612	H	0.45143	0.487457	0.561906
613	C	0.453957	0.353345	0.558116
614	C	0.462585	0.334268	0.600175
615	C	0.460026	0.298462	0.600481
616	C	0.454548	0.281248	0.555867
617	C	0.44508	0.2986	0.513403
618	C	0.445022	0.334322	0.514874
619	H	0.453167	0.255369	0.556321
620	H	0.436452	0.346302	0.984276
621	O	0.475209	0.393358	0.977725
622	O	0.474934	0.350224	0.641205
623	H	0.499411	0.391809	0.983564
624	H	0.499119	0.352946	0.635815
625	C	0.139808	0.039678	0.936208
626	C	0.158539	0.048639	0.979447
627	C	0.193971	0.049031	0.980342
628	C	0.211309	0.039889	0.937373
629	C	0.194254	0.034252	0.893033
630	C	0.158808	0.031243	0.893711
631	H	0.146537	0.057016	0.51041
632	H	0.236928	0.04174	0.936433
633	C	0.10393	0.039753	0.934129
634	C	0.084539	0.03079	0.975897
635	C	0.049067	0.033408	0.976188
636	C	0.032476	0.038824	0.931626
637	C	0.050183	0.049447	0.889885
638	C	0.085579	0.049535	0.891374
639	H	0.006854	0.040275	0.932234
640	H	0.097873	0.058564	0.861182
641	O	0.143129	0.018403	0.852832
642	O	0.099817	0.017684	0.516304
643	H	0.141001	0.993954	0.857919
644	H	0.101491	0.993267	0.510166
645	C	0.106031	0.204172	0.684535
646	C	0.087505	0.194388	0.727302
647	C	0.052112	0.194593	0.728857
648	C	0.034548	0.205399	0.687248
649	C	0.051285	0.210711	0.642712
650	C	0.086792	0.213168	0.642794
651	H	0.099624	0.18527	0.757446
652	H	0.008902	0.203887	0.686662
653	C	0.14191	0.204176	0.682445
654	C	0.161063	0.212553	0.724972
655	C	0.196435	0.209457	0.725679
656	C	0.213392	0.203681	0.681346
657	C	0.195903	0.194728	0.6383
658	C	0.160476	0.195237	0.639192
659	H	0.238993	0.201985	0.682246
660	H	0.148315	0.186965	0.608182
661	O	0.102234	0.226144	0.602239
662	O	0.145623	0.225351	0.765876
663	H	0.104443	0.250564	0.60827
664	H	0.143791	0.249784	0.760745
665	C	0.99987	0.527504	0.280476
666	C	0.474464	0.55202	0.282013
667	C	0.442608	0.520375	0.214354
668	C	0.46696	0.994788	0.214221
669	C	0.463727	0.966745	0.181603
670	C	0.437446	0.964042	0.147485
671	C	0.413589	0.990193	0.147101
672	C	0.416122	0.517734	0.180144
673	C	0.47715	0.57827	0.317348
674	C	0.004639	0.580526	0.349666
675	C	0.030594	0.556524	0.347681
676	C	0.027801	0.530414	0.312536
677	C	0.49405	0.96721	0.279659
678	C	0.019235	0.94246	0.279838
679	C	0.051147	0.974211	0.213334
680	C	0.026839	0.499854	0.214034
681	C	0.077641	0.97676	0.179206
682	C	0.080257	0.504258	0.146974
683	C	0.056368	0.530355	0.148025
684	C	0.030031	0.527795	0.182037
685	C	0.466192	0.964246	0.311796
686	C	0.463246	0.937784	0.345542
687	C	0.488913	0.913439	0.345997
688	C	0.016333	0.91581	0.313653
689	H	0.489205	0.895402	0.372699
690	H	0.035603	0.899421	0.317436
691	H	0.093782	0.957184	0.175218
692	H	0.098149	0.503704	0.120025
693	H	0.011223	0.545161	0.180866
694	H	0.4492	0.983414	0.31346
695	H	0.482529	0.949367	0.180023
696	H	0.395697	0.990675	0.120166
697	H	0.399946	0.537277	0.176681
698	H	0.044938	0.511355	0.313121
699	H	0.457698	0.594404	0.322268
700	H	0.00422	0.598222	0.377366
701	C	0.496945	0.99735	0.247069
702	C	0.048814	0.944497	0.246483
703	H	0.071353	0.944454	0.269275
704	H	0.048772	0.921682	0.223507
705	C	0.444847	0.549986	0.248641
706	H	0.444762	0.572895	0.226573
707	H	0.422326	0.549827	0.271473
708	C	0.246159	0.717818	0.029628
709	C	0.271519	0.693242	0.029779
710	C	0.303105	0.725125	0.463083
711	C	0.27863	0.750606	0.463843
712	C	0.281645	0.778616	0.431944
713	C	0.307897	0.781327	0.397863
714	C	0.332063	0.755479	0.396871
715	C	0.329603	0.727917	0.429006
716	C	0.268958	0.66672	0.063864
717	C	0.241654	0.66426	0.09642
718	C	0.215758	0.688334	0.095849
719	C	0.218438	0.714777	0.062
720	C	0.251978	0.778106	0.030554
721	C	0.226734	0.802791	0.032141
722	C	0.194579	0.771296	0.464632
723	C	0.218757	0.745535	0.464451
724	C	0.168156	0.76893	0.430285
725	C	0.165452	0.741443	0.397173
726	C	0.189032	0.715048	0.397631
727	C	0.215327	0.717524	0.431804
728	C	0.280034	0.780924	0.062393
729	C	0.283077	0.807118	0.0973
730	C	0.257372	0.831392	0.099296
731	C	0.22973	0.829143	0.067271
732	H	0.257168	0.849208	0.126845
733	H	0.210438	0.845446	0.072176
734	H	0.152081	0.788577	0.426912
735	H	0.147576	0.742069	0.370226
736	H	0.234066	0.70008	0.430115
737	H	0.297093	0.761796	0.062968
738	H	0.262707	0.79583	0.430775
739	H	0.349943	0.755029	0.369901
740	H	0.345904	0.708487	0.425021
741	H	0.201298	0.733819	0.06359
742	H	0.288366	0.650461	0.067591
743	H	0.242125	0.646288	0.123209
744	C	0.248862	0.747997	0.497087
745	C	0.19704	0.800904	0.998905
746	H	0.174565	0.800882	0.021831
747	H	0.197044	0.823811	0.476826
748	C	0.301008	0.69542	0.996264
749	H	0.301043	0.672592	0.473317
750	H	0.3236	0.695521	0.018947
751	C	0.468592	0.748425	0.40396
752	C	0.444183	0.722431	0.403676
753	C	0.476056	0.691326	0.336129
754	C	0.001559	0.716193	0.337866
755	C	0.029587	0.71359	0.306021
756	C	0.032409	0.687453	0.271027
757	C	0.006399	0.663047	0.268921
758	C	0.478752	0.665066	0.300887
759	C	0.417726	0.724461	0.437945
760	C	0.415138	0.751901	0.471061
761	C	0.438995	0.778455	0.470696
762	C	0.465359	0.776368	0.43667
763	C	0.028473	0.743934	0.404642
764	C	0.053279	0.769532	0.40518
765	C	0.022117	0.801058	0.338311
766	C	0.996348	0.776446	0.33881
767	C	0.020045	0.827355	0.303838
768	C	0.492756	0.829649	0.271303
769	C	0.466457	0.805573	0.272313
770	C	0.468639	0.779326	0.306476
771	C	0.031243	0.716003	0.436655
772	C	0.057532	0.713453	0.470677
773	C	0.081949	0.739513	0.471426
774	C	0.079819	0.766963	0.439129
775	H	0.099946	0.740081	0.498237
776	H	0.096374	0.786493	0.442981
777	H	0.039771	0.843569	0.299883
778	H	0.493575	0.847404	0.244217
779	H	0.451191	0.760253	0.305089
780	H	0.012106	0.698679	0.437993
781	H	0.046867	0.732827	0.305545
782	H	0.005972	0.645309	0.241274
783	H	0.459268	0.648637	0.295904
784	H	0.484238	0.79399	0.438487
785	H	0.401489	0.704639	0.441197
786	H	0.397252	0.751035	0.498001
787	C	0.998719	0.746278	0.371376
788	C	0.0516	0.799097	0.371766
789	H	0.052004	0.822017	0.394515
790	H	0.074171	0.798959	0.34904
791	C	0.446373	0.692907	0.369319
792	H	0.423908	0.692781	0.346371
793	H	0.446152	0.66996	0.391316
794	C	0.277029	0.994327	0.154357
795	C	0.301529	0.520226	0.154925
796	C	0.269925	0.551456	0.088206
797	C	0.244467	0.526521	0.088636
798	C	0.216611	0.529208	0.056517
799	C	0.213957	0.555624	0.022712
800	C	0.239902	0.580095	0.021886
801	C	0.267344	0.577951	0.054146
802	C	0.32798	0.518096	0.189108
803	C	0.330318	0.990769	0.221597
804	C	0.306298	0.96435	0.220718
805	C	0.280042	0.966518	0.18653
806	C	0.21715	0.498808	0.154256
807	C	0.192453	0.973102	0.153957
808	C	0.223878	0.941714	0.086234
809	C	0.249692	0.966266	0.088018
810	C	0.226059	0.915633	0.050612
811	C	0.253525	0.913458	0.018323
812	C	0.279881	0.937445	0.020695
813	C	0.277581	0.963482	0.055951
814	C	0.214158	0.526837	0.186876
815	C	0.187713	0.529388	0.220712
816	C	0.163554	0.503103	0.220957
817	C	0.165912	0.975552	0.188011
818	H	0.145554	0.502536	0.247746
819	H	0.149449	0.955932	0.191257
820	H	0.206326	0.899483	0.04561
821	H	0.252828	0.895867	0.99048
822	H	0.295068	0.982535	0.055517
823	H	0.233191	0.544289	0.188652
824	H	0.199378	0.509945	0.055016
825	H	0.240353	0.598047	0.995066
826	H	0.286805	0.594465	0.050281
827	H	0.261096	0.948969	0.18781
828	H	0.34424	0.537881	0.193052
829	H	0.348184	0.991628	0.24859
830	C	0.247109	0.996458	0.121368
831	C	0.194283	0.943573	0.119561
832	H	0.193853	0.920613	0.141515
833	H	0.171777	0.943715	0.0967
834	C	0.299485	0.549787	0.121557
835	H	0.322022	0.549931	0.098766
836	H	0.299658	0.572692	0.144351
837	C	0.041134	0.603846	0.060755
838	C	0.050222	0.585594	0.103945
839	C	0.049986	0.549876	0.105487
840	C	0.040261	0.531717	0.063146
841	C	0.034793	0.548235	0.018633
842	C	0.032199	0.583996	0.018875
843	H	0.058972	0.598164	0.134435
844	H	0.041672	0.505862	0.062615
845	C	0.041512	0.640032	0.058211
846	C	0.033427	0.659938	0.100259
847	C	0.036708	0.695714	0.100439
848	C	0.042106	0.712136	0.055757
849	C	0.0511	0.69394	0.013272
850	C	0.0506	0.658227	0.014832
851	H	0.044026	0.737988	0.056293
852	H	0.058759	0.645608	0.484159
853	O	0.019021	0.599135	0.478411
854	O	0.020382	0.644838	0.141022
855	H	0.994868	0.600996	0.484509
856	H	0.996146	0.642911	0.135402
857	C	0.204153	0.640271	0.310583
858	C	0.194903	0.659214	0.3536
859	C	0.195138	0.69494	0.355016
860	C	0.205171	0.712405	0.312771
861	C	0.21057	0.695246	0.268185
862	C	0.213151	0.659478	0.268658
863	H	0.186069	0.647153	0.384094
864	H	0.203713	0.738244	0.312128
865	C	0.20373	0.604046	0.30827
866	C	0.211625	0.584765	0.350462
867	C	0.2083	0.549017	0.350701
868	C	0.202842	0.531931	0.306001
869	C	0.194015	0.549474	0.263416
870	C	0.194678	0.585201	0.264902
871	H	0.201055	0.506075	0.306408
872	H	0.186542	0.597353	0.234194
873	O	0.226064	0.643716	0.228029
874	O	0.224088	0.60043	0.391647
875	H	0.250213	0.641689	0.233973
876	H	0.24834	0.602695	0.386494
877	C	0.392047	0.789972	0.186261
878	C	0.41095	0.799062	0.229267
879	C	0.446387	0.799039	0.230012
880	C	0.46354	0.789426	0.187084
881	C	0.446312	0.783555	0.142932
882	C	0.410859	0.780842	0.143902
883	H	0.399097	0.80781	0.260138
884	H	0.489161	0.791172	0.185927
885	C	0.356182	0.790411	0.184208
886	C	0.336691	0.781854	0.226059
887	C	0.301206	0.7844	0.226012
888	C	0.284766	0.789614	0.181284
889	C	0.302593	0.800165	0.139622
890	C	0.337979	0.800101	0.141269
891	H	0.259133	0.790922	0.18164
892	H	0.350395	0.80887	0.111016
893	O	0.39499	0.76767	0.103391
894	O	0.351905	0.769158	0.266798
895	H	0.392763	0.743289	0.109019
896	H	0.353705	0.744704	0.261109
897	C	0.35375	0.953951	0.434594
898	C	0.335054	0.944044	0.477125
899	C	0.299665	0.944634	0.478574
900	C	0.282276	0.955836	0.437016
901	C	0.299179	0.961373	0.392654
902	C	0.334688	0.963594	0.393011
903	H	0.347031	0.934567	0.007151
904	H	0.256634	0.954391	0.43622
905	C	0.389616	0.953605	0.432515
906	C	0.408867	0.961568	0.475108
907	C	0.444251	0.95851	0.47551
908	C	0.461068	0.952939	0.431022
909	C	0.443461	0.944074	0.388057
910	C	0.408046	0.944757	0.389093
911	H	0.486685	0.951351	0.431704
912	H	0.395772	0.936737	0.35804
913	O	0.350305	0.976889	0.352812
914	O	0.39349	0.973975	0.016319
915	H	0.352636	0.001237	0.359376
916	H	0.391544	0.998442	0.011621
917	C	0.291544	0.854535	0.310597
918	C	0.300896	0.836467	0.353822
919	C	0.301414	0.800753	0.355283
920	C	0.292068	0.782443	0.312898
921	C	0.28646	0.798865	0.268361
922	C	0.283128	0.834551	0.268633
923	H	0.309251	0.849212	0.384404
924	H	0.293895	0.756621	0.312353
925	C	0.291155	0.8907	0.308075
926	C	0.282366	0.910402	0.349996
927	C	0.284922	0.946234	0.350248
928	C	0.290335	0.962785	0.305645
929	C	0.299891	0.944771	0.263255
930	C	0.30012	0.909071	0.264814
931	H	0.291883	0.988657	0.306238
932	H	0.308721	0.896616	0.234261
933	O	0.26969	0.849457	0.228167
934	O	0.269464	0.894998	0.390615
935	H	0.245485	0.850784	0.234174
936	H	0.245289	0.892594	0.384776
937	C	0.453617	0.88955	0.060408
938	C	0.444121	0.908299	0.103476
939	C	0.443623	0.94402	0.104827
940	C	0.453281	0.961649	0.062544
941	C	0.458793	0.94459	0.017923
942	C	0.46208	0.908892	0.018392
943	H	0.435689	0.896065	0.134066
944	H	0.45143	0.987457	0.061905
945	C	0.453955	0.853345	0.058116
946	C	0.462586	0.834268	0.100173
947	C	0.460027	0.798462	0.100481
948	C	0.454546	0.781248	0.055867
949	C	0.445078	0.7986	0.013404
950	C	0.445023	0.834322	0.014875
951	H	0.453167	0.75537	0.056322
952	H	0.436452	0.846302	0.484277
953	O	0.475207	0.893358	0.477726
954	O	0.474935	0.850224	0.141206
955	H	0.499409	0.891808	0.483565
956	H	0.499117	0.852943	0.135814
957	C	0.139808	0.539678	0.436209
958	C	0.158539	0.548638	0.479447
959	C	0.193971	0.549031	0.480343
960	C	0.211309	0.539888	0.437374
961	C	0.194254	0.534253	0.393034
962	C	0.158808	0.531243	0.393708
963	H	0.146537	0.557016	0.01041
964	H	0.236928	0.54174	0.436434
965	C	0.10393	0.539751	0.43413
966	C	0.084539	0.53079	0.475897
967	C	0.049067	0.533409	0.476189
968	C	0.032476	0.538823	0.431627
969	C	0.050183	0.549447	0.389885
970	C	0.085579	0.549536	0.391375
971	H	0.006854	0.540275	0.432235
972	H	0.097873	0.558565	0.361183
973	O	0.143129	0.518404	0.352832
974	O	0.099817	0.517683	0.016306
975	H	0.141001	0.493954	0.35792
976	H	0.101491	0.493266	0.010167
977	C	0.106031	0.704173	0.184537
978	C	0.087505	0.694389	0.227303
979	C	0.052112	0.694592	0.228857
980	C	0.034547	0.7054	0.187251
981	C	0.051285	0.710711	0.142715
982	C	0.086791	0.713167	0.142793
983	H	0.099624	0.685271	0.257447
984	H	0.008902	0.703885	0.186661
985	C	0.14191	0.704175	0.182447
986	C	0.161063	0.712553	0.224972
987	C	0.196435	0.709457	0.225679
988	C	0.213392	0.703681	0.181349
989	C	0.195903	0.694727	0.138301
990	C	0.160476	0.695238	0.139192
991	H	0.238993	0.701986	0.182248
992	H	0.148315	0.686965	0.108182
993	O	0.102234	0.726144	0.102239
994	O	0.145622	0.725352	0.265879
995	H	0.104443	0.750563	0.108271
996	H	0.143791	0.749784	0.260744
997	C	0.99987	0.527505	0.780475
998	C	0.474464	0.55202	0.782012
999	C	0.442608	0.520375	0.714355
1000	C	0.46696	0.994786	0.714218
1001	C	0.463727	0.966745	0.681601
1002	C	0.437446	0.964043	0.647486
1003	C	0.413589	0.990193	0.647099
1004	C	0.416122	0.517732	0.680145
1005	C	0.47715	0.578271	0.817347
1006	C	0.004639	0.580527	0.849666
1007	C	0.030594	0.556525	0.847682
1008	C	0.027801	0.530415	0.812536
1009	C	0.49405	0.96721	0.779656
1010	C	0.019235	0.94246	0.779837
1011	C	0.051147	0.974209	0.713334
1012	C	0.026839	0.499855	0.714034
1013	C	0.077641	0.97676	0.679205
1014	C	0.080257	0.504258	0.646974
1015	C	0.056367	0.530353	0.648025
1016	C	0.030031	0.527796	0.682036
1017	C	0.466192	0.964246	0.811795
1018	C	0.463246	0.937785	0.84554
1019	C	0.488913	0.913437	0.845998
1020	C	0.016333	0.91581	0.813653
1021	H	0.489205	0.895402	0.872698
1022	H	0.035603	0.899421	0.817435
1023	H	0.093782	0.957184	0.675216
1024	H	0.098149	0.503705	0.620022
1025	H	0.011223	0.545162	0.680867
1026	H	0.4492	0.983415	0.813461
1027	H	0.482529	0.949367	0.680023
1028	H	0.395697	0.990676	0.620166
1029	H	0.399946	0.537275	0.676679
1030	H	0.044938	0.511355	0.813118
1031	H	0.457698	0.594404	0.822268
1032	H	0.00422	0.598223	0.877365
1033	C	0.496945	0.99735	0.747068
1034	C	0.048814	0.944498	0.746482
1035	H	0.071353	0.944454	0.769275
1036	H	0.048772	0.92168	0.723508
1037	C	0.444847	0.549984	0.748639
1038	H	0.444762	0.572896	0.726572
1039	H	0.422326	0.549827	0.771472
1040	C	0.246159	0.717819	0.529627
1041	C	0.271519	0.693242	0.529778
1042	C	0.303105	0.725126	0.963083
1043	C	0.27863	0.750606	0.963842
1044	C	0.281645	0.778616	0.931943
1045	C	0.307897	0.781327	0.897862
1046	C	0.332064	0.755479	0.89687
1047	C	0.329603	0.727917	0.929005
1048	C	0.268958	0.666718	0.563863
1049	C	0.241654	0.66426	0.596418
1050	C	0.215758	0.688335	0.595847
1051	C	0.218438	0.714778	0.561998
1052	C	0.251978	0.778107	0.530552
1053	C	0.226734	0.802792	0.532141
1054	C	0.194579	0.771297	0.964631
1055	C	0.218757	0.745535	0.96445
1056	C	0.168156	0.76893	0.930284
1057	C	0.165452	0.741443	0.897173
1058	C	0.189032	0.715046	0.89763
1059	C	0.215327	0.717522	0.931803
1060	C	0.280034	0.780924	0.562392
1061	C	0.283077	0.807116	0.597299
1062	C	0.257372	0.831392	0.599294
1063	C	0.22973	0.829144	0.567269
1064	H	0.257168	0.849209	0.626846
1065	H	0.210438	0.845446	0.572176
1066	H	0.152081	0.788577	0.926911
1067	H	0.147576	0.742069	0.870225
1068	H	0.234066	0.70008	0.930115
1069	H	0.297093	0.761794	0.562967
1070	H	0.262707	0.795831	0.930775
1071	H	0.349943	0.755029	0.8699
1072	H	0.345904	0.708487	0.92502
1073	H	0.201298	0.73382	0.56359
1074	H	0.288366	0.650462	0.56759
1075	H	0.242125	0.646289	0.623207
1076	C	0.248862	0.747997	0.997089
1077	C	0.19704	0.800902	0.498904
1078	H	0.174565	0.800882	0.52183
1079	H	0.197044	0.823809	0.976826
1080	C	0.301008	0.69542	0.496265
1081	H	0.301043	0.672592	0.973316
1082	H	0.3236	0.695522	0.518948
1083	C	0.468592	0.748425	0.903959
1084	C	0.444183	0.722431	0.903676
1085	C	0.476056	0.691326	0.836129
1086	C	0.001559	0.716194	0.837865
1087	C	0.029587	0.713591	0.806022
1088	C	0.032409	0.687451	0.771026
1089	C	0.006399	0.663048	0.768921
1090	C	0.478752	0.665067	0.800887
1091	C	0.417726	0.724462	0.937945
1092	C	0.415138	0.751901	0.97106
1093	C	0.438995	0.778455	0.970695
1094	C	0.465359	0.776366	0.936669
1095	C	0.028473	0.743932	0.904641
1096	C	0.053279	0.769532	0.90518
1097	C	0.022117	0.801059	0.838311
1098	C	0.996348	0.776447	0.838809
1099	C	0.020045	0.827356	0.803839
1100	C	0.492756	0.829649	0.771303
1101	C	0.466457	0.805573	0.772313
1102	C	0.468639	0.779326	0.806475
1103	C	0.031243	0.716004	0.936654
1104	C	0.057532	0.713451	0.970677
1105	C	0.081949	0.739514	0.971425
1106	C	0.079819	0.766964	0.939128
1107	H	0.099946	0.740083	0.998239
1108	H	0.096374	0.786494	0.94298
1109	H	0.039771	0.84357	0.799884
1110	H	0.493575	0.847404	0.744215
1111	H	0.451191	0.760253	0.805089
1112	H	0.012106	0.698679	0.937993
1113	H	0.046867	0.732827	0.805546
1114	H	0.005972	0.645309	0.741273
1115	H	0.459269	0.648638	0.795902
1116	H	0.484238	0.79399	0.938487
1117	H	0.401489	0.70464	0.941196
1118	H	0.397252	0.751037	0.998001
1119	C	0.998719	0.746276	0.871375
1120	C	0.0516	0.799095	0.871766
1121	H	0.052004	0.822017	0.894515
1122	H	0.074171	0.79896	0.849039
1123	C	0.446373	0.692905	0.869318
1124	H	0.423908	0.692781	0.84637
1125	H	0.446152	0.66996	0.891315
1126	C	0.277029	0.994327	0.654354
1127	C	0.301529	0.520227	0.654926
1128	C	0.269925	0.551457	0.588205
1129	C	0.244467	0.526522	0.588636
1130	C	0.216611	0.529209	0.556516
1131	C	0.213957	0.555622	0.522711
1132	C	0.239902	0.580095	0.521886
1133	C	0.267344	0.577949	0.554146
1134	C	0.32798	0.518097	0.689106
1135	C	0.330318	0.99077	0.721595
1136	C	0.306298	0.96435	0.720718
1137	C	0.280042	0.966518	0.686529
1138	C	0.21715	0.498809	0.654255
1139	C	0.192453	0.973103	0.653956
1140	C	0.223878	0.941714	0.586232
1141	C	0.249692	0.966267	0.588017
1142	C	0.226059	0.915633	0.55061
1143	C	0.253525	0.913458	0.518321
1144	C	0.279881	0.937445	0.520695
1145	C	0.277581	0.963483	0.555952
1146	C	0.214158	0.526837	0.686876
1147	C	0.187713	0.529389	0.72071
1148	C	0.163554	0.503104	0.720957
1149	C	0.165912	0.975553	0.688011
1150	H	0.145554	0.502537	0.747747
1151	H	0.149449	0.955932	0.691255
1152	H	0.206326	0.899484	0.545608
1153	H	0.252828	0.895867	0.490481
1154	H	0.295068	0.982536	0.555517
1155	H	0.233191	0.54429	0.688653
1156	H	0.199378	0.509946	0.555016
1157	H	0.240353	0.598049	0.495067
1158	H	0.286805	0.594466	0.550279
1159	H	0.261096	0.948969	0.687809
1160	H	0.34424	0.537882	0.693051
1161	H	0.348184	0.991629	0.748591
1162	C	0.247109	0.996458	0.621368
1163	C	0.194283	0.943574	0.619562
1164	H	0.193853	0.920611	0.641514
1165	H	0.171777	0.943715	0.596698
1166	C	0.299485	0.549787	0.621556
1167	H	0.322022	0.549932	0.598766
1168	H	0.299658	0.572692	0.644349
1169	C	0.041134	0.603847	0.560756
1170	C	0.050222	0.585595	0.603946
1171	C	0.049986	0.549876	0.605487
1172	C	0.040261	0.531717	0.563144
1173	C	0.034793	0.548236	0.518631
1174	C	0.032199	0.583997	0.518874
1175	H	0.058972	0.598165	0.634433
1176	H	0.041672	0.505863	0.562613
1177	C	0.041512	0.640032	0.558212
1178	C	0.033427	0.659939	0.600259
1179	C	0.036708	0.695715	0.60044
1180	C	0.042106	0.712136	0.555757
1181	C	0.0511	0.693941	0.51327
1182	C	0.0506	0.658228	0.51483
1183	H	0.044026	0.737988	0.556291
1184	H	0.058759	0.645609	0.984158
1185	O	0.019021	0.599133	0.978411
1186	O	0.020382	0.644838	0.64102
1187	H	0.994868	0.600997	0.984508
1188	H	0.996146	0.642912	0.635402
1189	C	0.204153	0.640271	0.810582
1190	C	0.194903	0.659214	0.853599
1191	C	0.195138	0.694941	0.855015
1192	C	0.205171	0.712406	0.812772
1193	C	0.21057	0.695247	0.768184
1194	C	0.213151	0.659476	0.768656
1195	H	0.186069	0.647154	0.884093
1196	H	0.203713	0.738245	0.812127
1197	C	0.20373	0.604046	0.80827
1198	C	0.211625	0.584766	0.850462
1199	C	0.2083	0.549015	0.850701
1200	C	0.202842	0.531931	0.806
1201	C	0.194015	0.549474	0.763414
1202	C	0.194678	0.585202	0.764903
1203	H	0.201055	0.506073	0.806409
1204	H	0.186542	0.597351	0.734191
1205	O	0.226064	0.643717	0.728028
1206	O	0.224088	0.60043	0.891647
1207	H	0.250213	0.641689	0.733974
1208	H	0.24834	0.602695	0.886493
1209	C	0.392047	0.789973	0.68626
1210	C	0.41095	0.799062	0.729266
1211	C	0.446387	0.799037	0.730011
1212	C	0.46354	0.789426	0.687082
1213	C	0.446312	0.783556	0.64293
1214	C	0.410859	0.78084	0.643899
1215	H	0.399097	0.80781	0.760137
1216	H	0.489161	0.79117	0.685925
1217	C	0.356182	0.790412	0.684207
1218	C	0.336691	0.781854	0.726059
1219	C	0.301206	0.7844	0.726011
1220	C	0.284766	0.789614	0.681284
1221	C	0.302593	0.800163	0.63962
1222	C	0.337979	0.800101	0.641267
1223	H	0.259133	0.790923	0.681638
1224	H	0.350395	0.808871	0.611016
1225	O	0.39499	0.767671	0.603389
1226	O	0.351905	0.769159	0.766798
1227	H	0.392763	0.74329	0.609018
1228	H	0.353705	0.744702	0.76111
1229	C	0.35375	0.953951	0.934594
1230	C	0.335054	0.944044	0.977124
1231	C	0.299665	0.944635	0.978573
1232	C	0.282276	0.955837	0.937016
1233	C	0.299179	0.961371	0.892653
1234	C	0.334688	0.963595	0.893011
1235	H	0.347031	0.934567	0.507151
1236	H	0.256634	0.954389	0.936219
1237	C	0.389616	0.953603	0.932515
1238	C	0.408867	0.961568	0.975108
1239	C	0.444251	0.95851	0.97551
1240	C	0.461068	0.95294	0.931022
1241	C	0.443461	0.944075	0.888056
1242	C	0.408046	0.944758	0.889092
1243	H	0.486685	0.951351	0.931704
1244	H	0.395772	0.936737	0.858037
1245	O	0.350305	0.976889	0.85281
1246	O	0.39349	0.973975	0.516319
1247	H	0.352636	0.001237	0.859376
1248	H	0.391544	0.998442	0.511619
1249	C	0.291544	0.854536	0.810597
1250	C	0.300896	0.836468	0.85382
1251	C	0.301414	0.800754	0.855284
1252	C	0.292068	0.782443	0.812897
1253	C	0.28646	0.798866	0.768361
1254	C	0.283128	0.834552	0.768634
1255	H	0.309251	0.84921	0.884403
1256	H	0.293895	0.756621	0.812351
1257	C	0.291155	0.890701	0.808075
1258	C	0.282366	0.910403	0.849994
1259	C	0.284922	0.946234	0.850248
1260	C	0.290335	0.962785	0.805646
1261	C	0.299891	0.944772	0.763255
1262	C	0.30012	0.909071	0.764811
1263	H	0.291883	0.988658	0.806236
1264	H	0.308721	0.896617	0.734262
1265	O	0.26969	0.849458	0.728168
1266	O	0.269464	0.894998	0.890615
1267	H	0.245485	0.850784	0.734173
1268	H	0.245289	0.892592	0.884775
1269	C	0.453617	0.88955	0.560405
1270	C	0.444121	0.908299	0.603474
1271	C	0.443623	0.944021	0.604827
1272	C	0.453281	0.961647	0.562543
1273	C	0.458793	0.944591	0.517923
1274	C	0.46208	0.908893	0.518391
1275	H	0.435689	0.896066	0.634064
1276	H	0.45143	0.987455	0.561906
1277	C	0.453955	0.853343	0.558116
1278	C	0.462586	0.834268	0.600175
1279	C	0.460027	0.798463	0.600481
1280	C	0.454546	0.781248	0.555867
1281	C	0.445078	0.798601	0.513403
1282	C	0.445023	0.834323	0.514874
1283	H	0.453167	0.75537	0.556321
1284	H	0.436452	0.846302	0.984276
1285	O	0.475207	0.893358	0.977725
1286	O	0.474935	0.850224	0.641205
1287	H	0.499409	0.891809	0.983564
1288	H	0.499117	0.852944	0.635815
1289	C	0.139808	0.539679	0.936208
1290	C	0.158539	0.548639	0.979447
1291	C	0.193971	0.549031	0.980342
1292	C	0.211309	0.539889	0.937373
1293	C	0.194254	0.534251	0.893033
1294	C	0.158808	0.531243	0.893711
1295	H	0.146537	0.557016	0.51041
1296	H	0.236928	0.54174	0.936433
1297	C	0.10393	0.539752	0.934129
1298	C	0.084539	0.53079	0.975897
1299	C	0.049067	0.533407	0.976188
1300	C	0.032476	0.538824	0.931626
1301	C	0.050183	0.549447	0.889885
1302	C	0.085579	0.549536	0.891374
1303	H	0.006854	0.540275	0.932234
1304	H	0.097873	0.558563	0.861182
1305	O	0.143129	0.518402	0.852832
1306	O	0.099817	0.517684	0.516304
1307	H	0.141001	0.493954	0.857919
1308	H	0.101491	0.493266	0.510166
1309	C	0.106031	0.704171	0.684535
1310	C	0.087505	0.694389	0.727302
1311	C	0.052112	0.694592	0.728857
1312	C	0.034548	0.705398	0.687248
1313	C	0.051285	0.710712	0.642716
1314	C	0.086791	0.713168	0.642794
1315	H	0.099624	0.685269	0.757446
1316	H	0.008902	0.703886	0.686662
1317	C	0.14191	0.704176	0.682445
1318	C	0.161063	0.712554	0.724972
1319	C	0.196435	0.709458	0.725679
1320	C	0.213392	0.703682	0.681346
1321	C	0.195903	0.694728	0.6383
1322	C	0.160476	0.695236	0.639192
1323	H	0.238993	0.701984	0.682246
1324	H	0.148315	0.686963	0.608182
1325	O	0.102234	0.726144	0.602239
1326	O	0.145622	0.72535	0.765876
1327	H	0.104443	0.750564	0.60827
1328	H	0.143791	0.749785	0.760745
1329	C	0.499871	0.027505	0.280476
1330	C	0.974466	0.05202	0.282013
1331	C	0.942607	0.020375	0.214354
1332	C	0.966961	0.494788	0.214221
1333	C	0.963727	0.466744	0.181603
1334	C	0.937447	0.464042	0.147485
1335	C	0.913588	0.490192	0.147101
1336	C	0.916121	0.017734	0.180144
1337	C	0.97715	0.07827	0.317348
1338	C	0.50464	0.080527	0.349666
1339	C	0.530595	0.056525	0.347681
1340	C	0.527802	0.030414	0.312536
1341	C	0.994049	0.467209	0.279659
1342	C	0.519236	0.442459	0.279838
1343	C	0.551148	0.47421	0.213334
1344	C	0.526838	0.999854	0.214034
1345	C	0.57764	0.476762	0.179206
1346	C	0.580257	0.004257	0.146974
1347	C	0.556368	0.030355	0.148025
1348	C	0.53003	0.027795	0.182037
1349	C	0.966191	0.464245	0.311796
1350	C	0.963247	0.437784	0.345542
1351	C	0.988912	0.413439	0.345997
1352	C	0.516333	0.415812	0.313653
1353	H	0.989207	0.395401	0.372699
1354	H	0.535603	0.399423	0.317436
1355	H	0.593783	0.457186	0.175218
1356	H	0.598148	0.003705	0.120025
1357	H	0.511224	0.045162	0.180866
1358	H	0.9492	0.483414	0.31346
1359	H	0.982528	0.449366	0.180023
1360	H	0.895697	0.490675	0.120166
1361	H	0.899945	0.037276	0.176681
1362	H	0.544939	0.011355	0.313121
1363	H	0.957698	0.094404	0.322268
1364	H	0.504219	0.098224	0.377366
1365	C	0.996945	0.49735	0.247069
1366	C	0.548815	0.4445	0.246483
1367	H	0.571354	0.444456	0.269275
1368	H	0.548773	0.421681	0.223507
1369	C	0.944846	0.049985	0.248641
1370	H	0.944762	0.072895	0.226573
1371	H	0.922326	0.049827	0.271473
1372	C	0.746159	0.217819	0.029628
1373	C	0.771519	0.193242	0.029779
1374	C	0.803105	0.225127	0.463083
1375	C	0.77863	0.250605	0.463843
1376	C	0.781644	0.278615	0.431944
1377	C	0.807896	0.281326	0.397863
1378	C	0.832065	0.255481	0.396871
1379	C	0.829602	0.227917	0.429006
1380	C	0.76896	0.166719	0.063864
1381	C	0.741656	0.16426	0.09642
1382	C	0.715759	0.188334	0.095849
1383	C	0.718437	0.214779	0.062
1384	C	0.751979	0.278108	0.030554
1385	C	0.726734	0.302793	0.032141
1386	C	0.69458	0.271298	0.464632
1387	C	0.718757	0.245536	0.464451
1388	C	0.668156	0.268932	0.430285
1389	C	0.665453	0.241443	0.397173
1390	C	0.689033	0.215047	0.397631
1391	C	0.715328	0.217523	0.431804
1392	C	0.780033	0.280923	0.062393
1393	C	0.783079	0.307117	0.0973
1394	C	0.757374	0.331394	0.099296
1395	C	0.729729	0.329143	0.067271
1396	H	0.757167	0.349208	0.126845
1397	H	0.710439	0.345445	0.072176
1398	H	0.652081	0.288579	0.426912
1399	H	0.647576	0.24207	0.370226
1400	H	0.734066	0.200081	0.430115
1401	H	0.797092	0.261796	0.062968
1402	H	0.762707	0.295833	0.430775
1403	H	0.849942	0.255028	0.369901
1404	H	0.845906	0.208487	0.425021
1405	H	0.701297	0.233821	0.06359
1406	H	0.788366	0.150462	0.067591
1407	H	0.742126	0.146289	0.123209
1408	C	0.748863	0.247997	0.497087
1409	C	0.697041	0.300904	0.998905
1410	H	0.674564	0.300881	0.021831
1411	H	0.697044	0.323811	0.476826
1412	C	0.80101	0.195421	0.996264
1413	H	0.801045	0.172592	0.473317
1414	H	0.823602	0.195521	0.018947
1415	C	0.968594	0.248426	0.40396
1416	C	0.944185	0.22243	0.403676
1417	C	0.976055	0.191326	0.336129
1418	C	0.501559	0.216193	0.337866
1419	C	0.529587	0.213591	0.306021
1420	C	0.53241	0.187453	0.271027
1421	C	0.506398	0.163048	0.268921
1422	C	0.978751	0.165067	0.300887
1423	C	0.917728	0.224462	0.437945
1424	C	0.915137	0.251902	0.471061
1425	C	0.938994	0.278454	0.470696
1426	C	0.965358	0.276367	0.43667
1427	C	0.528474	0.243933	0.404642
1428	C	0.55328	0.269531	0.40518
1429	C	0.522118	0.301058	0.338311
1430	C	0.496347	0.276448	0.33881
1431	C	0.520045	0.327355	0.303838
1432	C	0.992758	0.329648	0.271303
1433	C	0.966457	0.305572	0.272313
1434	C	0.968641	0.279325	0.306476
1435	C	0.531243	0.216004	0.436655
1436	C	0.557533	0.213452	0.470677
1437	C	0.581948	0.239513	0.471426
1438	C	0.579819	0.266966	0.439129
1439	H	0.599946	0.240082	0.498237
1440	H	0.596374	0.286493	0.442981
1441	H	0.539771	0.343571	0.299883
1442	H	0.993575	0.347403	0.244217
1443	H	0.95119	0.260252	0.305089
1444	H	0.512107	0.198678	0.437993
1445	H	0.546867	0.232827	0.305545
1446	H	0.505971	0.145308	0.241274
1447	H	0.95927	0.148638	0.295903
1448	H	0.984237	0.293989	0.438487
1449	H	0.901489	0.204639	0.441197
1450	H	0.897251	0.251036	0.498001
1451	C	0.498719	0.246277	0.371376
1452	C	0.5516	0.299096	0.371766
1453	H	0.552003	0.322019	0.394515
1454	H	0.57417	0.298959	0.34904
1455	C	0.946373	0.192906	0.369319
1456	H	0.923907	0.192781	0.346371
1457	H	0.946152	0.16996	0.391316
1458	C	0.777029	0.494326	0.154357
1459	C	0.801529	0.020227	0.154925
1460	C	0.769925	0.051456	0.088206
1461	C	0.744466	0.026523	0.088636
1462	C	0.716613	0.02921	0.056517
1463	C	0.713958	0.055624	0.022712
1464	C	0.739902	0.080095	0.021886
1465	C	0.767346	0.07795	0.054146
1466	C	0.82798	0.018096	0.189108
1467	C	0.830317	0.490769	0.221597
1468	C	0.806297	0.464349	0.220718
1469	C	0.780041	0.466517	0.18653
1470	C	0.71715	0.99881	0.154256
1471	C	0.692455	0.473102	0.153957
1472	C	0.72388	0.441713	0.086234
1473	C	0.749693	0.466266	0.088018
1474	C	0.726058	0.415632	0.050612
1475	C	0.753525	0.41346	0.018323
1476	C	0.779883	0.437444	0.020695
1477	C	0.77758	0.463482	0.055951
1478	C	0.714157	0.026837	0.186876
1479	C	0.687712	0.02939	0.220712
1480	C	0.663554	0.003104	0.220957
1481	C	0.665911	0.475554	0.188011
1482	H	0.645555	0.002537	0.247746
1483	H	0.649449	0.455934	0.191257
1484	H	0.706327	0.399485	0.04561
1485	H	0.752827	0.395867	0.99048
1486	H	0.795067	0.482537	0.055517
1487	H	0.73319	0.04429	0.188652
1488	H	0.699378	0.009946	0.055016
1489	H	0.740354	0.098048	0.995066
1490	H	0.786805	0.094465	0.050281
1491	H	0.761095	0.448968	0.18781
1492	H	0.844239	0.037881	0.193052
1493	H	0.848186	0.49163	0.24859
1494	C	0.747109	0.49646	0.121368
1495	C	0.694282	0.443575	0.119561
1496	H	0.693854	0.420612	0.141515
1497	H	0.671777	0.443714	0.0967
1498	C	0.799484	0.049787	0.121557
1499	H	0.822024	0.049931	0.098766
1500	H	0.799659	0.072691	0.144351
1501	C	0.541135	0.103848	0.060755
1502	C	0.550222	0.085595	0.103945
1503	C	0.549986	0.049875	0.105487
1504	C	0.540261	0.031718	0.063146
1505	C	0.534792	0.048235	0.018633
1506	C	0.5322	0.083996	0.018875
1507	H	0.558973	0.098165	0.134435
1508	H	0.541671	0.005863	0.062615
1509	C	0.541511	0.140031	0.058211
1510	C	0.533428	0.159939	0.100259
1511	C	0.536709	0.195714	0.100439
1512	C	0.542107	0.212137	0.055757
1513	C	0.5511	0.19394	0.013272
1514	C	0.550601	0.158228	0.014832
1515	H	0.544026	0.237989	0.056293
1516	H	0.558759	0.145609	0.484159
1517	O	0.519022	0.099134	0.478411
1518	O	0.520384	0.144838	0.141022
1519	H	0.494867	0.100998	0.484509
1520	H	0.496146	0.142912	0.135402
1521	C	0.704154	0.140271	0.310583
1522	C	0.694903	0.159213	0.3536
1523	C	0.695137	0.194941	0.355016
1524	C	0.705171	0.212406	0.312771
1525	C	0.710569	0.195247	0.268185
1526	C	0.713151	0.159477	0.268658
1527	H	0.68607	0.147154	0.384094
1528	H	0.703713	0.238244	0.312128
1529	C	0.703731	0.104045	0.30827
1530	C	0.711624	0.084766	0.350462
1531	C	0.708299	0.049016	0.350701
1532	C	0.702842	0.031932	0.306001
1533	C	0.694016	0.049473	0.263416
1534	C	0.694677	0.085201	0.264902
1535	H	0.701056	0.006074	0.306408
1536	H	0.68654	0.097352	0.234194
1537	O	0.726064	0.143717	0.228029
1538	O	0.724089	0.10043	0.391647
1539	H	0.750215	0.14169	0.233973
1540	H	0.74834	0.102695	0.386494
1541	C	0.892046	0.289974	0.186261
1542	C	0.91095	0.299061	0.229267
1543	C	0.946386	0.299039	0.230012
1544	C	0.963542	0.289428	0.187084
1545	C	0.946311	0.283555	0.142932
1546	C	0.910858	0.280841	0.143902
1547	H	0.899097	0.307809	0.260138
1548	H	0.98916	0.291172	0.185927
1549	C	0.856183	0.290411	0.184208
1550	C	0.83669	0.281853	0.226059
1551	C	0.801206	0.284399	0.226012
1552	C	0.784768	0.289613	0.181284
1553	C	0.802593	0.300164	0.139622
1554	C	0.837979	0.3001	0.141269
1555	H	0.759132	0.290924	0.18164
1556	H	0.850397	0.30887	0.111016
1557	O	0.89499	0.26767	0.103391
1558	O	0.851904	0.269158	0.266798
1559	H	0.892762	0.24329	0.109019
1560	H	0.853704	0.244703	0.261109
1561	C	0.853749	0.453953	0.434594
1562	C	0.835056	0.444046	0.477125
1563	C	0.799665	0.444636	0.478574
1564	C	0.782278	0.455838	0.437016
1565	C	0.799178	0.461372	0.392654
1566	C	0.83469	0.463596	0.393011
1567	H	0.84703	0.434566	0.007151
1568	H	0.756635	0.45439	0.43622
1569	C	0.889618	0.453605	0.432515
1570	C	0.908866	0.46157	0.475108
1571	C	0.944251	0.458509	0.47551
1572	C	0.96107	0.452939	0.431022
1573	C	0.943461	0.444074	0.388057
1574	C	0.908047	0.444757	0.389093
1575	H	0.986684	0.45135	0.431704
1576	H	0.895771	0.436736	0.35804
1577	O	0.850304	0.476888	0.352812
1578	O	0.893492	0.473974	0.016319
1579	H	0.852637	0.501235	0.359376
1580	H	0.891545	0.498442	0.011621
1581	C	0.791544	0.354535	0.310597
1582	C	0.800895	0.336469	0.353822
1583	C	0.801413	0.300753	0.355283
1584	C	0.792069	0.282445	0.312898
1585	C	0.786462	0.298865	0.268361
1586	C	0.783127	0.334551	0.268633
1587	H	0.80925	0.349212	0.384404
1588	H	0.793897	0.25662	0.312353
1589	C	0.791155	0.3907	0.308075
1590	C	0.782368	0.410404	0.349996
1591	C	0.784922	0.446233	0.350248
1592	C	0.790334	0.462784	0.305645
1593	C	0.799893	0.444771	0.263255
1594	C	0.800122	0.40907	0.264814
1595	H	0.791883	0.488657	0.306238
1596	H	0.80872	0.396618	0.234261
1597	O	0.769689	0.349459	0.228167
1598	O	0.769466	0.394997	0.390615
1599	H	0.745485	0.350783	0.234174
1600	H	0.745289	0.392593	0.384776
1601	C	0.953616	0.389549	0.060408
1602	C	0.944123	0.408301	0.103476
1603	C	0.943625	0.44402	0.104827
1604	C	0.95328	0.461648	0.062544
1605	C	0.958792	0.44459	0.017923
1606	C	0.962082	0.408892	0.018392
1607	H	0.93569	0.396065	0.134066
1608	H	0.95143	0.487457	0.061905
1609	C	0.953957	0.353345	0.058116
1610	C	0.962587	0.334267	0.100173
1611	C	0.960026	0.298462	0.100481
1612	C	0.954548	0.281247	0.055867
1613	C	0.94508	0.2986	0.013404
1614	C	0.945022	0.334322	0.014875
1615	H	0.953166	0.255369	0.056322
1616	H	0.936451	0.346301	0.484277
1617	O	0.975209	0.393357	0.477726
1618	O	0.974934	0.350223	0.141206
1619	H	0.99941	0.391811	0.483565
1620	H	0.999118	0.352945	0.135814
1621	C	0.639809	0.039678	0.436209
1622	C	0.658539	0.048639	0.479447
1623	C	0.693972	0.049031	0.480343
1624	C	0.711309	0.039889	0.437374
1625	C	0.694253	0.034252	0.393034
1626	C	0.658807	0.031243	0.393712
1627	H	0.646538	0.057016	0.01041
1628	H	0.736929	0.04174	0.436434
1629	C	0.603931	0.039753	0.43413
1630	C	0.584539	0.03079	0.475897
1631	C	0.549068	0.033408	0.476189
1632	C	0.532477	0.038824	0.431627
1633	C	0.550184	0.049447	0.389885
1634	C	0.585579	0.049535	0.391375
1635	H	0.506854	0.040275	0.432235
1636	H	0.597872	0.058564	0.361183
1637	O	0.643129	0.018403	0.352832
1638	O	0.599817	0.017684	0.016306
1639	H	0.641002	0.993954	0.35792
1640	H	0.601491	0.993266	0.010167
1641	C	0.60603	0.204172	0.184537
1642	C	0.587505	0.194388	0.227303
1643	C	0.552113	0.194593	0.228857
1644	C	0.534548	0.205399	0.187251
1645	C	0.551286	0.210711	0.142715
1646	C	0.586792	0.213168	0.142793
1647	H	0.599625	0.18527	0.257447
1648	H	0.508902	0.203887	0.186661
1649	C	0.641909	0.204176	0.182447
1650	C	0.661064	0.212553	0.224972
1651	C	0.696436	0.209457	0.225679
1652	C	0.713391	0.203681	0.181349
1653	C	0.695903	0.194728	0.138301
1654	C	0.660476	0.195237	0.139191
1655	H	0.738993	0.201985	0.182248
1656	H	0.648314	0.186965	0.108182
1657	O	0.602234	0.226144	0.102239
1658	O	0.645623	0.225351	0.265879
1659	H	0.604442	0.250564	0.108271
1660	H	0.64379	0.249784	0.260744
1661	C	0.499871	0.027505	0.780475
1662	C	0.974466	0.05202	0.782012
1663	C	0.942607	0.020375	0.714355
1664	C	0.966961	0.494788	0.714218
1665	C	0.963727	0.466745	0.681604
1666	C	0.937447	0.464042	0.647486
1667	C	0.913588	0.490193	0.647099
1668	C	0.916121	0.017734	0.680145
1669	C	0.97715	0.07827	0.817347
1670	C	0.50464	0.080527	0.849666
1671	C	0.530595	0.056525	0.847682
1672	C	0.527802	0.030414	0.812536
1673	C	0.994049	0.46721	0.779656
1674	C	0.519236	0.44246	0.779837
1675	C	0.551148	0.474211	0.713334
1676	C	0.526838	0.999854	0.714034
1677	C	0.57764	0.476762	0.679205
1678	C	0.580257	0.004257	0.646974
1679	C	0.556368	0.030355	0.648025
1680	C	0.53003	0.027795	0.682036
1681	C	0.966191	0.464246	0.811795
1682	C	0.963247	0.437784	0.84554
1683	C	0.988912	0.413439	0.845998
1684	C	0.516333	0.41581	0.813653
1685	H	0.989207	0.395402	0.872698
1686	H	0.535603	0.399421	0.817435
1687	H	0.593783	0.457184	0.675216
1688	H	0.598148	0.003705	0.620022
1689	H	0.511224	0.045162	0.680867
1690	H	0.9492	0.483414	0.813461
1691	H	0.982528	0.449367	0.680023
1692	H	0.895697	0.490676	0.620166
1693	H	0.899945	0.037276	0.676679
1694	H	0.544939	0.011355	0.813118
1695	H	0.957698	0.094404	0.822268
1696	H	0.504219	0.098224	0.877365
1697	C	0.996945	0.497351	0.747068
1698	C	0.548815	0.4445	0.746482
1699	H	0.571354	0.444454	0.769275
1700	H	0.548773	0.421682	0.723508
1701	C	0.944846	0.049985	0.748639
1702	H	0.944762	0.072895	0.726572
1703	H	0.922326	0.049827	0.771472
1704	C	0.746159	0.217819	0.529627
1705	C	0.771519	0.193242	0.529778
1706	C	0.803105	0.225127	0.963083
1707	C	0.77863	0.250605	0.963842
1708	C	0.781644	0.278616	0.931943
1709	C	0.807896	0.281327	0.897862
1710	C	0.832065	0.25548	0.89687
1711	C	0.829602	0.227917	0.929005
1712	C	0.76896	0.166719	0.563863
1713	C	0.741656	0.16426	0.596418
1714	C	0.715759	0.188334	0.595847
1715	C	0.718437	0.214779	0.561998
1716	C	0.751979	0.278106	0.530552
1717	C	0.726734	0.302791	0.532141
1718	C	0.69458	0.271296	0.964631
1719	C	0.718757	0.245536	0.96445
1720	C	0.668156	0.26893	0.930284
1721	C	0.665453	0.241442	0.897173
1722	C	0.689033	0.215047	0.89763
1723	C	0.715328	0.217523	0.931803
1724	C	0.780033	0.280924	0.562392
1725	C	0.783079	0.307118	0.597299
1726	C	0.757374	0.331392	0.599294
1727	C	0.729729	0.329143	0.567269
1728	H	0.757167	0.349208	0.626846
1729	H	0.710439	0.345446	0.572176
1730	H	0.652081	0.288579	0.926911
1731	H	0.647576	0.24207	0.870225
1732	H	0.734066	0.200081	0.930115
1733	H	0.797092	0.261796	0.562967
1734	H	0.762707	0.295831	0.930775
1735	H	0.849942	0.255029	0.8699
1736	H	0.845906	0.208487	0.92502
1737	H	0.701297	0.233821	0.56359
1738	H	0.788366	0.150462	0.56759
1739	H	0.742126	0.146289	0.623207
1740	C	0.748863	0.247997	0.997089
1741	C	0.697041	0.300904	0.498904
1742	H	0.674564	0.300882	0.52183
1743	H	0.697044	0.323811	0.976826
1744	C	0.80101	0.195421	0.496265
1745	H	0.801045	0.172592	0.973316
1746	H	0.823602	0.195521	0.518948
1747	C	0.968594	0.248426	0.903959
1748	C	0.944185	0.22243	0.903676
1749	C	0.976055	0.191326	0.836129
1750	C	0.501559	0.216193	0.837865
1751	C	0.529587	0.213591	0.806018
1752	C	0.53241	0.187453	0.771026
1753	C	0.506398	0.163048	0.768921
1754	C	0.978751	0.165067	0.800887
1755	C	0.917728	0.224462	0.937945
1756	C	0.915137	0.251902	0.97106
1757	C	0.938994	0.278455	0.970695
1758	C	0.965358	0.276368	0.936669
1759	C	0.528474	0.243933	0.904641
1760	C	0.55328	0.269532	0.90518
1761	C	0.522118	0.301058	0.838311
1762	C	0.496347	0.276446	0.838809
1763	C	0.520045	0.327355	0.803839
1764	C	0.992758	0.329649	0.771303
1765	C	0.966457	0.305573	0.772313
1766	C	0.968641	0.279326	0.806475
1767	C	0.531243	0.216004	0.936654
1768	C	0.557533	0.213452	0.970677
1769	C	0.581948	0.239513	0.971425
1770	C	0.579819	0.266964	0.939128
1771	H	0.599946	0.240082	0.998239
1772	H	0.596374	0.286493	0.94298
1773	H	0.539771	0.343569	0.799884
1774	H	0.993575	0.347404	0.744215
1775	H	0.95119	0.260253	0.805089
1776	H	0.512107	0.198678	0.937993
1777	H	0.546867	0.232827	0.805546
1778	H	0.505971	0.145308	0.741273
1779	H	0.95927	0.148638	0.795902
1780	H	0.984237	0.29399	0.938487
1781	H	0.901489	0.204639	0.941196
1782	H	0.897251	0.251036	0.998001
1783	C	0.498719	0.246277	0.871375
1784	C	0.5516	0.299097	0.871766
1785	H	0.552003	0.322017	0.894515
1786	H	0.57417	0.298959	0.849039
1787	C	0.946373	0.192906	0.869318
1788	H	0.923907	0.192781	0.84637
1789	H	0.946152	0.16996	0.891315
1790	C	0.777029	0.494327	0.654354
1791	C	0.801529	0.020227	0.654926
1792	C	0.769925	0.051456	0.588205
1793	C	0.744466	0.026523	0.588636
1794	C	0.716613	0.02921	0.556516
1795	C	0.713958	0.055623	0.522711
1796	C	0.739902	0.080095	0.521886
1797	C	0.767346	0.07795	0.554146
1798	C	0.82798	0.018096	0.689106
1799	C	0.830317	0.490769	0.721595
1800	C	0.806297	0.46435	0.720718
1801	C	0.780041	0.466518	0.686529
1802	C	0.71715	0.99881	0.654255
1803	C	0.692455	0.473102	0.653956
1804	C	0.72388	0.441714	0.586232
1805	C	0.749693	0.466266	0.588017
1806	C	0.726058	0.415633	0.55061
1807	C	0.753525	0.413458	0.518321
1808	C	0.779883	0.437445	0.520695
1809	C	0.77758	0.463482	0.555952
1810	C	0.714157	0.026837	0.686876
1811	C	0.687712	0.029389	0.72071
1812	C	0.663554	0.003104	0.720957
1813	C	0.665911	0.475552	0.688011
1814	H	0.645555	0.002537	0.747747
1815	H	0.649449	0.455934	0.691255
1816	H	0.706327	0.399483	0.545608
1817	H	0.752827	0.395866	0.490481
1818	H	0.795067	0.482538	0.555517
1819	H	0.73319	0.04429	0.688653
1820	H	0.699378	0.009946	0.555016
1821	H	0.740354	0.098048	0.495067
1822	H	0.786805	0.094465	0.550279
1823	H	0.761095	0.448969	0.687809
1824	H	0.844239	0.037881	0.693051
1825	H	0.848186	0.491631	0.748591
1826	C	0.747109	0.49646	0.621368
1827	C	0.694282	0.443576	0.619562
1828	H	0.693854	0.420613	0.641514
1829	H	0.671777	0.443715	0.596698
1830	C	0.799484	0.049787	0.621556
1831	H	0.822024	0.049931	0.598766
1832	H	0.799659	0.072691	0.644349
1833	C	0.541135	0.103848	0.560756
1834	C	0.550222	0.085595	0.603946
1835	C	0.549986	0.049875	0.605487
1836	C	0.540261	0.031718	0.563144
1837	C	0.534792	0.048235	0.518631
1838	C	0.5322	0.083996	0.518874
1839	H	0.558973	0.098165	0.634433
1840	H	0.541671	0.005863	0.562613
1841	C	0.541511	0.140031	0.558212
1842	C	0.533428	0.159939	0.600259
1843	C	0.536709	0.195714	0.60044
1844	C	0.542107	0.212137	0.555757
1845	C	0.5511	0.19394	0.51327
1846	C	0.550601	0.158228	0.51483
1847	H	0.544026	0.237989	0.556291
1848	H	0.558759	0.145609	0.984158
1849	O	0.519022	0.099134	0.978411
1850	O	0.520384	0.144838	0.64102
1851	H	0.494867	0.100998	0.984508
1852	H	0.496146	0.142912	0.635402
1853	C	0.704154	0.140271	0.810582
1854	C	0.694903	0.159213	0.853599
1855	C	0.695137	0.194941	0.855015
1856	C	0.705171	0.212406	0.812772
1857	C	0.710569	0.195247	0.768184
1858	C	0.713151	0.159477	0.768656
1859	H	0.68607	0.147154	0.884093
1860	H	0.703713	0.238244	0.812127
1861	C	0.703731	0.104045	0.80827
1862	C	0.711624	0.084766	0.850462
1863	C	0.708299	0.049016	0.850701
1864	C	0.702842	0.031932	0.806
1865	C	0.694016	0.049473	0.763414
1866	C	0.694677	0.085201	0.764903
1867	H	0.701056	0.006074	0.806409
1868	H	0.68654	0.097352	0.734191
1869	O	0.726064	0.143717	0.728028
1870	O	0.724089	0.10043	0.891647
1871	H	0.750215	0.14169	0.733974
1872	H	0.74834	0.102695	0.886493
1873	C	0.892046	0.289972	0.68626
1874	C	0.91095	0.299062	0.729266
1875	C	0.946386	0.299039	0.730011
1876	C	0.963542	0.289426	0.687082
1877	C	0.946311	0.283555	0.64293
1878	C	0.910858	0.280842	0.643899
1879	H	0.899097	0.30781	0.760137
1880	H	0.98916	0.291172	0.685925
1881	C	0.856183	0.290411	0.684207
1882	C	0.83669	0.281854	0.726059
1883	C	0.801206	0.2844	0.726011
1884	C	0.784768	0.289614	0.681284
1885	C	0.802593	0.300165	0.63962
1886	C	0.837979	0.300101	0.641267
1887	H	0.759132	0.290922	0.681638
1888	H	0.850397	0.30887	0.611016
1889	O	0.89499	0.26767	0.603389
1890	O	0.851904	0.269158	0.766798
1891	H	0.892762	0.24329	0.609018
1892	H	0.853704	0.244703	0.76111
1893	C	0.853749	0.453951	0.934594
1894	C	0.835056	0.444044	0.977124
1895	C	0.799665	0.444634	0.978573
1896	C	0.782278	0.455839	0.937016
1897	C	0.799178	0.461373	0.892653
1898	C	0.83469	0.463594	0.893011
1899	H	0.84703	0.434567	0.507151
1900	H	0.756635	0.454391	0.936219
1901	C	0.889618	0.453605	0.932515
1902	C	0.908866	0.46157	0.975108
1903	C	0.944251	0.45851	0.97551
1904	C	0.96107	0.452939	0.931022
1905	C	0.943461	0.444074	0.888056
1906	C	0.908047	0.444757	0.889092
1907	H	0.986684	0.451351	0.931704
1908	H	0.895771	0.436737	0.858037
1909	O	0.850304	0.476889	0.85281
1910	O	0.893492	0.473975	0.516319
1911	H	0.852637	0.501236	0.859376
1912	H	0.891545	0.498443	0.511619
1913	C	0.791544	0.354535	0.810597
1914	C	0.800895	0.336467	0.85382
1915	C	0.801413	0.300754	0.855284
1916	C	0.792069	0.282445	0.812897
1917	C	0.786462	0.298865	0.768361
1918	C	0.783127	0.334551	0.768634
1919	H	0.80925	0.349212	0.884403
1920	H	0.793897	0.25662	0.812351
1921	C	0.791155	0.3907	0.808075
1922	C	0.782368	0.410402	0.849994
1923	C	0.784922	0.446234	0.850248
1924	C	0.790334	0.462785	0.805646
1925	C	0.799893	0.444771	0.763255
1926	C	0.800122	0.409071	0.764811
1927	H	0.791883	0.488657	0.806236
1928	H	0.80872	0.396616	0.734262
1929	O	0.769689	0.349457	0.728168
1930	O	0.769466	0.394998	0.890615
1931	H	0.745485	0.350784	0.734173
1932	H	0.745289	0.392594	0.884775
1933	C	0.953616	0.38955	0.560405
1934	C	0.944123	0.408301	0.603474
1935	C	0.943625	0.44402	0.604827
1936	C	0.95328	0.461649	0.562543
1937	C	0.958792	0.44459	0.517923
1938	C	0.962082	0.408892	0.518391
1939	H	0.93569	0.396065	0.634064
1940	H	0.95143	0.487457	0.561906
1941	C	0.953957	0.353345	0.558116
1942	C	0.962587	0.334268	0.600175
1943	C	0.960026	0.298462	0.600481
1944	C	0.954548	0.281248	0.555867
1945	C	0.94508	0.2986	0.513403
1946	C	0.945022	0.334322	0.514874
1947	H	0.953166	0.255369	0.556321
1948	H	0.936451	0.346302	0.984276
1949	O	0.975209	0.393358	0.977725
1950	O	0.974934	0.350224	0.641205
1951	H	0.99941	0.391809	0.983564
1952	H	0.999118	0.352946	0.635815
1953	C	0.639809	0.039678	0.936208
1954	C	0.658539	0.048639	0.979447
1955	C	0.693972	0.049031	0.980342
1956	C	0.711309	0.039889	0.937373
1957	C	0.694253	0.034252	0.893033
1958	C	0.658807	0.031243	0.893711
1959	H	0.646538	0.057016	0.51041
1960	H	0.736929	0.04174	0.936433
1961	C	0.603931	0.039753	0.934129
1962	C	0.584539	0.03079	0.975897
1963	C	0.549068	0.033408	0.976188
1964	C	0.532477	0.038824	0.931626
1965	C	0.550184	0.049447	0.889885
1966	C	0.585579	0.049535	0.891374
1967	H	0.506854	0.040275	0.932234
1968	H	0.597872	0.058564	0.861182
1969	O	0.643129	0.018403	0.852832
1970	O	0.599817	0.017684	0.516304
1971	H	0.641002	0.993954	0.857919
1972	H	0.601491	0.993267	0.510166
1973	C	0.60603	0.204172	0.684535
1974	C	0.587505	0.194388	0.727302
1975	C	0.552113	0.194593	0.728857
1976	C	0.534548	0.205399	0.687248
1977	C	0.551286	0.210711	0.642712
1978	C	0.586792	0.213168	0.642794
1979	H	0.599625	0.18527	0.757446
1980	H	0.508902	0.203887	0.686662
1981	C	0.641909	0.204176	0.682445
1982	C	0.661064	0.212553	0.724972
1983	C	0.696436	0.209457	0.725679
1984	C	0.713391	0.203681	0.681346
1985	C	0.695903	0.194728	0.6383
1986	C	0.660476	0.195237	0.639192
1987	H	0.738993	0.201985	0.682246
1988	H	0.648314	0.186965	0.608182
1989	O	0.602234	0.226144	0.602239
1990	O	0.645623	0.225351	0.765876
1991	H	0.604442	0.250564	0.60827
1992	H	0.64379	0.249784	0.760745
1993	C	0.499869	0.527504	0.280476
1994	C	0.974464	0.55202	0.282013
1995	C	0.942607	0.520375	0.214354
1996	C	0.966959	0.994788	0.214221
1997	C	0.963727	0.966745	0.181603
1998	C	0.937448	0.964042	0.147485
1999	C	0.913589	0.990193	0.147101
2000	C	0.916121	0.517734	0.180144
2001	C	0.97715	0.57827	0.317348
2002	C	0.50464	0.580526	0.349666
2003	C	0.530593	0.556524	0.347681
2004	C	0.5278	0.530414	0.312536
2005	C	0.99405	0.96721	0.279659
2006	C	0.519236	0.94246	0.279838
2007	C	0.551148	0.974211	0.213334
2008	C	0.526839	0.499854	0.214034
2009	C	0.577641	0.97676	0.179206
2010	C	0.580258	0.504258	0.146974
2011	C	0.556368	0.530355	0.148025
2012	C	0.530031	0.527795	0.182037
2013	C	0.966191	0.964246	0.311796
2014	C	0.963245	0.937784	0.345542
2015	C	0.988912	0.913439	0.345997
2016	C	0.516333	0.91581	0.313653
2017	H	0.989205	0.895402	0.372699
2018	H	0.535603	0.899421	0.317436
2019	H	0.593781	0.957184	0.175218
2020	H	0.598149	0.503704	0.120025
2021	H	0.511224	0.545161	0.180866
2022	H	0.9492	0.983414	0.31346
2023	H	0.982528	0.949367	0.180023
2024	H	0.895697	0.990675	0.120166
2025	H	0.899946	0.537277	0.176681
2026	H	0.544939	0.511355	0.313121
2027	H	0.957698	0.594404	0.322268
2028	H	0.50422	0.598222	0.377366
2029	C	0.996945	0.99735	0.247069
2030	C	0.548816	0.944497	0.246483
2031	H	0.571352	0.944454	0.269275
2032	H	0.548773	0.921682	0.223507
2033	C	0.944847	0.549986	0.248641
2034	H	0.944762	0.572895	0.226573
2035	H	0.922326	0.549827	0.271473
2036	C	0.746159	0.717818	0.029628
2037	C	0.771519	0.693242	0.029779
2038	C	0.803105	0.725125	0.463083
2039	C	0.77863	0.750606	0.463843
2040	C	0.781645	0.778616	0.431944
2041	C	0.807897	0.781327	0.397863
2042	C	0.832063	0.755479	0.396871
2043	C	0.829602	0.727917	0.429006
2044	C	0.768958	0.66672	0.063864
2045	C	0.741654	0.66426	0.09642
2046	C	0.715759	0.688334	0.095849
2047	C	0.718438	0.714777	0.062
2048	C	0.751977	0.778106	0.030554
2049	C	0.726735	0.802791	0.032141
2050	C	0.69458	0.771296	0.464632
2051	C	0.718758	0.745535	0.464451
2052	C	0.668157	0.76893	0.430285
2053	C	0.665451	0.741443	0.397173
2054	C	0.689034	0.715048	0.397631
2055	C	0.715328	0.717524	0.431804
2056	C	0.780033	0.780924	0.062393
2057	C	0.783077	0.807118	0.0973
2058	C	0.757372	0.831392	0.099296
2059	C	0.72973	0.829143	0.067271
2060	H	0.757167	0.849208	0.126845
2061	H	0.710439	0.845446	0.072176
2062	H	0.652082	0.788577	0.426912
2063	H	0.647576	0.742069	0.370226
2064	H	0.734066	0.70008	0.430115
2065	H	0.797092	0.761796	0.062968
2066	H	0.762707	0.79583	0.430775
2067	H	0.849943	0.755029	0.369901
2068	H	0.845904	0.708487	0.425021
2069	H	0.701298	0.733819	0.06359
2070	H	0.788366	0.650461	0.067591
2071	H	0.742127	0.646288	0.123209
2072	C	0.748863	0.747997	0.497087
2073	C	0.697042	0.800904	0.998905
2074	H	0.674565	0.800882	0.021831
2075	H	0.697045	0.823811	0.476826
2076	C	0.801008	0.69542	0.996264
2077	H	0.801045	0.672592	0.473317
2078	H	0.823602	0.695521	0.018947
2079	C	0.968592	0.748425	0.40396
2080	C	0.944183	0.722431	0.403676
2081	C	0.976056	0.691326	0.336129
2082	C	0.501559	0.716193	0.337866
2083	C	0.529588	0.71359	0.306021
2084	C	0.53241	0.687453	0.271027
2085	C	0.506399	0.663047	0.268921
2086	C	0.978752	0.665066	0.300887
2087	C	0.917729	0.724461	0.437945
2088	C	0.915138	0.751901	0.471061
2089	C	0.938994	0.778455	0.470696
2090	C	0.965359	0.776368	0.43667
2091	C	0.528472	0.743934	0.404642
2092	C	0.55328	0.769532	0.40518
2093	C	0.522116	0.801058	0.338311
2094	C	0.496348	0.776446	0.33881
2095	C	0.520045	0.827355	0.303838
2096	C	0.992756	0.829649	0.271303
2097	C	0.966457	0.805573	0.272313
2098	C	0.968641	0.779326	0.306476
2099	C	0.531244	0.716003	0.436655
2100	C	0.557534	0.713453	0.470677
2101	C	0.581948	0.739513	0.471426
2102	C	0.57982	0.766963	0.439129
2103	H	0.599946	0.740081	0.498237
2104	H	0.596374	0.786493	0.442981
2105	H	0.539772	0.843569	0.299883
2106	H	0.993575	0.847404	0.244217
2107	H	0.951191	0.760253	0.305089
2108	H	0.512107	0.698679	0.437993
2109	H	0.546867	0.732827	0.305545
2110	H	0.505971	0.645309	0.241274
2111	H	0.959268	0.648637	0.295904
2112	H	0.984238	0.79399	0.438487
2113	H	0.901489	0.704639	0.441197
2114	H	0.897252	0.751035	0.498001
2115	C	0.498719	0.746278	0.371376
2116	C	0.5516	0.799097	0.371766
2117	H	0.552003	0.822017	0.394515
2118	H	0.574171	0.798959	0.34904
2119	C	0.946373	0.692907	0.369319
2120	H	0.923908	0.692781	0.346371
2121	H	0.946152	0.66996	0.391316
2122	C	0.777029	0.994327	0.154357
2123	C	0.801529	0.520226	0.154925
2124	C	0.769925	0.551456	0.088206
2125	C	0.744466	0.526521	0.088636
2126	C	0.716611	0.529208	0.056517
2127	C	0.713958	0.555624	0.022712
2128	C	0.739903	0.580095	0.021886
2129	C	0.767344	0.577951	0.054146
2130	C	0.82798	0.518096	0.189108
2131	C	0.830318	0.990769	0.221597
2132	C	0.806297	0.96435	0.220718
2133	C	0.780041	0.966518	0.18653
2134	C	0.717151	0.498808	0.154256
2135	C	0.692453	0.973102	0.153957
2136	C	0.723878	0.941714	0.086234
2137	C	0.749693	0.966266	0.088018
2138	C	0.726058	0.915633	0.050612
2139	C	0.753526	0.913458	0.018323
2140	C	0.779881	0.937445	0.020695
2141	C	0.77758	0.963482	0.055951
2142	C	0.714158	0.526837	0.186876
2143	C	0.687713	0.529388	0.220712
2144	C	0.663554	0.503103	0.220957
2145	C	0.665912	0.975552	0.188011
2146	H	0.645553	0.502536	0.247746
2147	H	0.649449	0.955932	0.191257
2148	H	0.706325	0.899483	0.04561
2149	H	0.752828	0.895867	0.99048
2150	H	0.795068	0.982535	0.055517
2151	H	0.733191	0.544289	0.188652
2152	H	0.699379	0.509945	0.055016
2153	H	0.740354	0.598047	0.995066
2154	H	0.786805	0.594465	0.050281
2155	H	0.761095	0.948969	0.18781
2156	H	0.84424	0.537881	0.193052
2157	H	0.848186	0.991628	0.24859
2158	C	0.747109	0.996458	0.121368
2159	C	0.694283	0.943573	0.119561
2160	H	0.693852	0.920613	0.141515
2161	H	0.671777	0.943715	0.0967
2162	C	0.799484	0.549787	0.121557
2163	H	0.822025	0.549931	0.098766
2164	H	0.79966	0.572692	0.144351
2165	C	0.541133	0.603846	0.060755
2166	C	0.550223	0.585594	0.103945
2167	C	0.549986	0.549876	0.105487
2168	C	0.540261	0.531717	0.063146
2169	C	0.534792	0.548235	0.018633
2170	C	0.532198	0.583996	0.018875
2171	H	0.558971	0.598164	0.134435
2172	H	0.541672	0.505862	0.062615
2173	C	0.541511	0.640032	0.058211
2174	C	0.533426	0.659938	0.100259
2175	C	0.536707	0.695714	0.100439
2176	C	0.542105	0.712136	0.055757
2177	C	0.551101	0.69394	0.013272
2178	C	0.550602	0.658227	0.014832
2179	H	0.544026	0.737988	0.056293
2180	H	0.558759	0.645608	0.484159
2181	O	0.519022	0.599135	0.478411
2182	O	0.520382	0.644838	0.141022
2183	H	0.494868	0.600996	0.484509
2184	H	0.496146	0.642911	0.135402
2185	C	0.704152	0.640271	0.310583
2186	C	0.694904	0.659214	0.3536
2187	C	0.695138	0.69494	0.355016
2188	C	0.705172	0.712405	0.312771
2189	C	0.71057	0.695246	0.268185
2190	C	0.713152	0.659478	0.268658
2191	H	0.68607	0.647153	0.384094
2192	H	0.703714	0.738244	0.312128
2193	C	0.703731	0.604046	0.30827
2194	C	0.711625	0.584765	0.350462
2195	C	0.708299	0.549017	0.350701
2196	C	0.702842	0.531931	0.306001
2197	C	0.694016	0.549474	0.263416
2198	C	0.694678	0.585201	0.264902
2199	H	0.701056	0.506075	0.306408
2200	H	0.686541	0.597353	0.234194
2201	O	0.726065	0.643716	0.228029
2202	O	0.724089	0.60043	0.391647
2203	H	0.750213	0.641689	0.233973
2204	H	0.74834	0.602695	0.386494
2205	C	0.892047	0.789972	0.186261
2206	C	0.91095	0.799062	0.229267
2207	C	0.946387	0.799039	0.230012
2208	C	0.96354	0.789426	0.187084
2209	C	0.946312	0.783555	0.142932
2210	C	0.910859	0.780842	0.143902
2211	H	0.899097	0.80781	0.260138
2212	H	0.989161	0.791172	0.185927
2213	C	0.856184	0.790411	0.184208
2214	C	0.83669	0.781854	0.226059
2215	C	0.801206	0.7844	0.226012
2216	C	0.784769	0.789614	0.181284
2217	C	0.802593	0.800165	0.139622
2218	C	0.837979	0.800101	0.141269
2219	H	0.759132	0.790922	0.18164
2220	H	0.850397	0.80887	0.111016
2221	O	0.89499	0.76767	0.103391
2222	O	0.851905	0.769158	0.266798
2223	H	0.892763	0.743289	0.109019
2224	H	0.853705	0.744704	0.261109
2225	C	0.85375	0.953951	0.434594
2226	C	0.835054	0.944044	0.477125
2227	C	0.799665	0.944634	0.478574
2228	C	0.782278	0.955836	0.437016
2229	C	0.799179	0.961373	0.392654
2230	C	0.83469	0.963594	0.393011
2231	H	0.847031	0.934567	0.007151
2232	H	0.756635	0.954391	0.43622
2233	C	0.889616	0.953605	0.432515
2234	C	0.908867	0.961568	0.475108
2235	C	0.944251	0.95851	0.47551
2236	C	0.961068	0.952939	0.431022
2237	C	0.943461	0.944074	0.388057
2238	C	0.908045	0.944757	0.389093
2239	H	0.986684	0.951351	0.431704
2240	H	0.895771	0.936737	0.35804
2241	O	0.850305	0.976889	0.352812
2242	O	0.89349	0.973975	0.016319
2243	H	0.852636	0.001237	0.359376
2244	H	0.891544	0.998442	0.011621
2245	C	0.791544	0.854535	0.310597
2246	C	0.800896	0.836467	0.353822
2247	C	0.801414	0.800753	0.355283
2248	C	0.792067	0.782443	0.312898
2249	C	0.786463	0.798865	0.268361
2250	C	0.783128	0.834551	0.268633
2251	H	0.80925	0.849212	0.384404
2252	H	0.793895	0.756621	0.312353
2253	C	0.791155	0.8907	0.308075
2254	C	0.782368	0.910402	0.349996
2255	C	0.784922	0.946234	0.350248
2256	C	0.790335	0.962785	0.305645
2257	C	0.799891	0.944771	0.263255
2258	C	0.800122	0.909071	0.264814
2259	H	0.791883	0.988657	0.306238
2260	H	0.808721	0.896616	0.234261
2261	O	0.76969	0.849457	0.228167
2262	O	0.769464	0.894998	0.390615
2263	H	0.745486	0.850784	0.234174
2264	H	0.745289	0.892594	0.384776
2265	C	0.953616	0.88955	0.060408
2266	C	0.944124	0.908299	0.103476
2267	C	0.943623	0.94402	0.104827
2268	C	0.953281	0.961649	0.062544
2269	C	0.958792	0.94459	0.017923
2270	C	0.96208	0.908892	0.018392
2271	H	0.935688	0.896065	0.134066
2272	H	0.95143	0.987457	0.061905
2273	C	0.953955	0.853345	0.058116
2274	C	0.962585	0.834268	0.100173
2275	C	0.960026	0.798462	0.100481
2276	C	0.954548	0.781248	0.055867
2277	C	0.945078	0.7986	0.013404
2278	C	0.945022	0.834322	0.014875
2279	H	0.953167	0.75537	0.056322
2280	H	0.936452	0.846302	0.484277
2281	O	0.97521	0.893358	0.477726
2282	O	0.974935	0.850224	0.141206
2283	H	0.99941	0.891808	0.483565
2284	H	0.999118	0.852943	0.135814
2285	C	0.639807	0.539678	0.436209
2286	C	0.65854	0.548638	0.479447
2287	C	0.69397	0.549031	0.480343
2288	C	0.71131	0.539888	0.437374
2289	C	0.694254	0.534253	0.393034
2290	C	0.658808	0.531243	0.393708
2291	H	0.646538	0.557016	0.01041
2292	H	0.736929	0.54174	0.436434
2293	C	0.603931	0.539751	0.43413
2294	C	0.584539	0.53079	0.475897
2295	C	0.549066	0.533409	0.476189
2296	C	0.532477	0.538823	0.431627
2297	C	0.550182	0.549447	0.389885
2298	C	0.58558	0.549536	0.391375
2299	H	0.506855	0.540275	0.432235
2300	H	0.597873	0.558565	0.361183
2301	O	0.64313	0.518404	0.352832
2302	O	0.599817	0.517683	0.016306
2303	H	0.641001	0.493954	0.35792
2304	H	0.60149	0.493266	0.010167
2305	C	0.606031	0.704173	0.184537
2306	C	0.587504	0.694389	0.227303
2307	C	0.552114	0.694592	0.228857
2308	C	0.534549	0.7054	0.187251
2309	C	0.551284	0.710711	0.142715
2310	C	0.586793	0.713167	0.142793
2311	H	0.599623	0.685271	0.257447
2312	H	0.508902	0.703885	0.186661
2313	C	0.64191	0.704175	0.182447
2314	C	0.661062	0.712553	0.224972
2315	C	0.696436	0.709457	0.225679
2316	C	0.713391	0.703681	0.181349
2317	C	0.695903	0.694727	0.138301
2318	C	0.660476	0.695238	0.139192
2319	H	0.738994	0.701986	0.182248
2320	H	0.648315	0.686965	0.108182
2321	O	0.602235	0.726144	0.102239
2322	O	0.645624	0.725352	0.265879
2323	H	0.604443	0.750563	0.108271
2324	H	0.643791	0.749784	0.260744
2325	C	0.499869	0.527505	0.780475
2326	C	0.974464	0.55202	0.782012
2327	C	0.942607	0.520375	0.714355
2328	C	0.966959	0.994786	0.714218
2329	C	0.963727	0.966745	0.681601
2330	C	0.937448	0.964043	0.647486
2331	C	0.913589	0.990193	0.647099
2332	C	0.916121	0.517732	0.680145
2333	C	0.97715	0.578271	0.817347
2334	C	0.50464	0.580527	0.849666
2335	C	0.530593	0.556525	0.847682
2336	C	0.5278	0.530415	0.812536
2337	C	0.99405	0.96721	0.779656
2338	C	0.519236	0.94246	0.779837
2339	C	0.551148	0.974209	0.713334
2340	C	0.526839	0.499855	0.714034
2341	C	0.577641	0.97676	0.679205
2342	C	0.580258	0.504258	0.646974
2343	C	0.556368	0.530353	0.648025
2344	C	0.530031	0.527796	0.682036
2345	C	0.966191	0.964246	0.811795
2346	C	0.963245	0.937785	0.84554
2347	C	0.988912	0.913437	0.845998
2348	C	0.516333	0.91581	0.813653
2349	H	0.989205	0.895402	0.872698
2350	H	0.535603	0.899421	0.817435
2351	H	0.593781	0.957184	0.675216
2352	H	0.598149	0.503705	0.620022
2353	H	0.511224	0.545162	0.680867
2354	H	0.9492	0.983415	0.813461
2355	H	0.982528	0.949367	0.680023
2356	H	0.895697	0.990676	0.620166
2357	H	0.899946	0.537275	0.676679
2358	H	0.544939	0.511355	0.813118
2359	H	0.957698	0.594404	0.822268
2360	H	0.50422	0.598223	0.877365
2361	C	0.996945	0.99735	0.747068
2362	C	0.548816	0.944498	0.746482
2363	H	0.571352	0.944454	0.769275
2364	H	0.548773	0.92168	0.723508
2365	C	0.944847	0.549984	0.748639
2366	H	0.944762	0.572896	0.726572
2367	H	0.922326	0.549827	0.771472
2368	C	0.746159	0.717819	0.529627
2369	C	0.771519	0.693242	0.529778
2370	C	0.803105	0.725126	0.963083
2371	C	0.77863	0.750606	0.963842
2372	C	0.781645	0.778616	0.931943
2373	C	0.807897	0.781327	0.897862
2374	C	0.832063	0.755479	0.89687
2375	C	0.829602	0.727917	0.929005
2376	C	0.768958	0.666718	0.563863
2377	C	0.741654	0.66426	0.596418
2378	C	0.715759	0.688335	0.595847
2379	C	0.718438	0.714778	0.561998
2380	C	0.751977	0.778107	0.530552
2381	C	0.726735	0.802792	0.532141
2382	C	0.69458	0.771297	0.964631
2383	C	0.718758	0.745535	0.96445
2384	C	0.668157	0.76893	0.930284
2385	C	0.665451	0.741443	0.897173
2386	C	0.689034	0.715046	0.89763
2387	C	0.715328	0.717522	0.931803
2388	C	0.780033	0.780924	0.562392
2389	C	0.783077	0.807116	0.597299
2390	C	0.757372	0.831392	0.599294
2391	C	0.72973	0.829144	0.567269
2392	H	0.757167	0.849209	0.626846
2393	H	0.710439	0.845446	0.572176
2394	H	0.652082	0.788577	0.926911
2395	H	0.647576	0.742069	0.870225
2396	H	0.734066	0.70008	0.930115
2397	H	0.797092	0.761794	0.562967
2398	H	0.762707	0.795831	0.930775
2399	H	0.849943	0.755029	0.8699
2400	H	0.845904	0.708487	0.92502
2401	H	0.701298	0.73382	0.56359
2402	H	0.788366	0.650462	0.56759
2403	H	0.742127	0.646289	0.623207
2404	C	0.748863	0.747997	0.997089
2405	C	0.697042	0.800902	0.498904
2406	H	0.674565	0.800882	0.52183
2407	H	0.697045	0.823809	0.976826
2408	C	0.801008	0.69542	0.496265
2409	H	0.801045	0.672592	0.973316
2410	H	0.823602	0.695522	0.518948
2411	C	0.968592	0.748425	0.903959
2412	C	0.944183	0.722431	0.903676
2413	C	0.976056	0.691326	0.836129
2414	C	0.501559	0.716194	0.837865
2415	C	0.529588	0.713591	0.806022
2416	C	0.53241	0.687451	0.771026
2417	C	0.506399	0.663048	0.768921
2418	C	0.978752	0.665067	0.800887
2419	C	0.917729	0.724462	0.937945
2420	C	0.915138	0.751901	0.97106
2421	C	0.938994	0.778455	0.970695
2422	C	0.965359	0.776366	0.936669
2423	C	0.528472	0.743932	0.904641
2424	C	0.55328	0.769532	0.90518
2425	C	0.522116	0.801059	0.838311
2426	C	0.496348	0.776447	0.838809
2427	C	0.520045	0.827356	0.803839
2428	C	0.992756	0.829649	0.771303
2429	C	0.966457	0.805573	0.772313
2430	C	0.968641	0.779326	0.806475
2431	C	0.531244	0.716004	0.936654
2432	C	0.557534	0.713451	0.970677
2433	C	0.581948	0.739514	0.971425
2434	C	0.57982	0.766964	0.939128
2435	H	0.599946	0.740083	0.998239
2436	H	0.596374	0.786494	0.94298
2437	H	0.539772	0.84357	0.799884
2438	H	0.993575	0.847404	0.744215
2439	H	0.951191	0.760253	0.805089
2440	H	0.512107	0.698679	0.937993
2441	H	0.546867	0.732827	0.805546
2442	H	0.505971	0.645309	0.741273
2443	H	0.959268	0.648638	0.795902
2444	H	0.984238	0.79399	0.938487
2445	H	0.901489	0.70464	0.941196
2446	H	0.897252	0.751037	0.998001
2447	C	0.498719	0.746276	0.871375
2448	C	0.5516	0.799095	0.871766
2449	H	0.552003	0.822017	0.894515
2450	H	0.574171	0.79896	0.849039
2451	C	0.946373	0.692905	0.869318
2452	H	0.923908	0.692781	0.84637
2453	H	0.946152	0.66996	0.891315
2454	C	0.777029	0.994327	0.654354
2455	C	0.801529	0.520227	0.654926
2456	C	0.769925	0.551457	0.588205
2457	C	0.744466	0.526522	0.588636
2458	C	0.716611	0.529209	0.556516
2459	C	0.713958	0.555622	0.522711
2460	C	0.739903	0.580095	0.521886
2461	C	0.767344	0.577949	0.554146
2462	C	0.82798	0.518097	0.689106
2463	C	0.830318	0.99077	0.721595
2464	C	0.806297	0.96435	0.720718
2465	C	0.780041	0.966518	0.686529
2466	C	0.717151	0.498809	0.654255
2467	C	0.692453	0.973103	0.653956
2468	C	0.723878	0.941714	0.586232
2469	C	0.749693	0.966267	0.588017
2470	C	0.726058	0.915633	0.55061
2471	C	0.753526	0.913458	0.518321
2472	C	0.779881	0.937445	0.520695
2473	C	0.77758	0.963483	0.555952
2474	C	0.714158	0.526837	0.686876
2475	C	0.687713	0.529389	0.72071
2476	C	0.663554	0.503104	0.720957
2477	C	0.665912	0.975553	0.688011
2478	H	0.645553	0.502537	0.747747
2479	H	0.649449	0.955932	0.691255
2480	H	0.706325	0.899484	0.545608
2481	H	0.752828	0.895867	0.490481
2482	H	0.795068	0.982536	0.555517
2483	H	0.733191	0.54429	0.688653
2484	H	0.699379	0.509946	0.555016
2485	H	0.740354	0.598049	0.495067
2486	H	0.786805	0.594466	0.550279
2487	H	0.761095	0.948969	0.687809
2488	H	0.84424	0.537882	0.693051
2489	H	0.848186	0.991629	0.748591
2490	C	0.747109	0.996458	0.621368
2491	C	0.694283	0.943574	0.619562
2492	H	0.693852	0.920611	0.641514
2493	H	0.671777	0.943715	0.596698
2494	C	0.799484	0.549787	0.621556
2495	H	0.822025	0.549932	0.598766
2496	H	0.79966	0.572692	0.644349
2497	C	0.541133	0.603847	0.560756
2498	C	0.550223	0.585595	0.603946
2499	C	0.549986	0.549876	0.605487
2500	C	0.540261	0.531717	0.563144
2501	C	0.534792	0.548236	0.518631
2502	C	0.532198	0.583997	0.518874
2503	H	0.558971	0.598165	0.634433
2504	H	0.541672	0.505863	0.562613
2505	C	0.541511	0.640032	0.558212
2506	C	0.533426	0.659939	0.600259
2507	C	0.536707	0.695715	0.60044
2508	C	0.542105	0.712136	0.555757
2509	C	0.551101	0.693941	0.51327
2510	C	0.550602	0.658228	0.51483
2511	H	0.544026	0.737988	0.556291
2512	H	0.558759	0.645609	0.984158
2513	O	0.519022	0.599133	0.978411
2514	O	0.520382	0.644838	0.64102
2515	H	0.494868	0.600997	0.984508
2516	H	0.496146	0.642912	0.635402
2517	C	0.704152	0.640271	0.810582
2518	C	0.694904	0.659214	0.853599
2519	C	0.695138	0.694941	0.855015
2520	C	0.705172	0.712406	0.812772
2521	C	0.71057	0.695247	0.768184
2522	C	0.713152	0.659476	0.768656
2523	H	0.68607	0.647154	0.884093
2524	H	0.703714	0.738245	0.812127
2525	C	0.703731	0.604046	0.80827
2526	C	0.711625	0.584766	0.850462
2527	C	0.708299	0.549015	0.850701
2528	C	0.702842	0.531931	0.806
2529	C	0.694016	0.549474	0.763414
2530	C	0.694678	0.585202	0.764903
2531	H	0.701056	0.506073	0.806409
2532	H	0.686541	0.597351	0.734191
2533	O	0.726065	0.643717	0.728028
2534	O	0.724089	0.60043	0.891647
2535	H	0.750213	0.641689	0.733974
2536	H	0.74834	0.602695	0.886493
2537	C	0.892047	0.789973	0.68626
2538	C	0.91095	0.799062	0.729266
2539	C	0.946387	0.799037	0.730011
2540	C	0.96354	0.789426	0.687082
2541	C	0.946312	0.783556	0.64293
2542	C	0.910859	0.78084	0.643899
2543	H	0.899097	0.80781	0.760137
2544	H	0.989161	0.79117	0.685925
2545	C	0.856184	0.790412	0.684207
2546	C	0.83669	0.781854	0.726059
2547	C	0.801206	0.7844	0.726011
2548	C	0.784769	0.789614	0.681284
2549	C	0.802593	0.800163	0.63962
2550	C	0.837979	0.800101	0.641267
2551	H	0.759132	0.790923	0.681638
2552	H	0.850397	0.808871	0.611016
2553	O	0.89499	0.767671	0.603389
2554	O	0.851905	0.769159	0.766798
2555	H	0.892763	0.74329	0.609018
2556	H	0.853705	0.744702	0.76111
2557	C	0.85375	0.953951	0.934594
2558	C	0.835054	0.944044	0.977124
2559	C	0.799665	0.944635	0.978573
2560	C	0.782278	0.955837	0.937016
2561	C	0.799179	0.961371	0.892653
2562	C	0.83469	0.963595	0.893011
2563	H	0.847031	0.934567	0.507151
2564	H	0.756635	0.954389	0.936219
2565	C	0.889616	0.953603	0.932515
2566	C	0.908867	0.961568	0.975108
2567	C	0.944251	0.95851	0.97551
2568	C	0.961068	0.95294	0.931022
2569	C	0.943461	0.944075	0.888056
2570	C	0.908046	0.944758	0.889092
2571	H	0.986684	0.951351	0.931704
2572	H	0.895771	0.936737	0.858037
2573	O	0.850305	0.976889	0.85281
2574	O	0.89349	0.973975	0.516319
2575	H	0.852636	0.001237	0.859376
2576	H	0.891544	0.998442	0.511619
2577	C	0.791544	0.854536	0.810597
2578	C	0.800896	0.836468	0.85382
2579	C	0.801414	0.800754	0.855284
2580	C	0.792067	0.782443	0.812897
2581	C	0.786463	0.798866	0.768361
2582	C	0.783128	0.834552	0.768634
2583	H	0.80925	0.84921	0.884403
2584	H	0.793895	0.756621	0.812351
2585	C	0.791155	0.890701	0.808075
2586	C	0.782368	0.910403	0.849994
2587	C	0.784922	0.946234	0.850248
2588	C	0.790335	0.962785	0.805646
2589	C	0.799891	0.944772	0.763255
2590	C	0.800122	0.909071	0.764811
2591	H	0.791883	0.988658	0.806236
2592	H	0.808721	0.896617	0.734262
2593	O	0.76969	0.849458	0.728168
2594	O	0.769464	0.894998	0.890615
2595	H	0.745486	0.850784	0.734173
2596	H	0.745289	0.892592	0.884775
2597	C	0.953616	0.88955	0.560405
2598	C	0.944124	0.908299	0.603474
2599	C	0.943623	0.944021	0.604827
2600	C	0.953281	0.961647	0.562543
2601	C	0.958792	0.944591	0.517923
2602	C	0.96208	0.908893	0.518391
2603	H	0.935688	0.896066	0.634064
2604	H	0.95143	0.987455	0.561906
2605	C	0.953955	0.853343	0.558116
2606	C	0.962585	0.834268	0.600175
2607	C	0.960026	0.798463	0.600481
2608	C	0.954548	0.781248	0.555867
2609	C	0.945078	0.798601	0.513403
2610	C	0.945023	0.834323	0.514874
2611	H	0.953167	0.75537	0.556321
2612	H	0.936452	0.846302	0.984276
2613	O	0.97521	0.893358	0.977725
2614	O	0.974935	0.850224	0.641205
2615	H	0.99941	0.891809	0.983564
2616	H	0.999118	0.852944	0.635815
2617	C	0.639807	0.539679	0.936208
2618	C	0.65854	0.548639	0.979447
2619	C	0.69397	0.549031	0.980342
2620	C	0.71131	0.539889	0.937373
2621	C	0.694254	0.534251	0.893033
2622	C	0.658808	0.531243	0.893711
2623	H	0.646538	0.557016	0.51041
2624	H	0.736929	0.54174	0.936433
2625	C	0.603931	0.539752	0.934129
2626	C	0.584539	0.53079	0.975897
2627	C	0.549066	0.533407	0.976188
2628	C	0.532477	0.538824	0.931626
2629	C	0.550182	0.549447	0.889885
2630	C	0.58558	0.549536	0.891374
2631	H	0.506855	0.540275	0.932234
2632	H	0.597873	0.558563	0.861182
2633	O	0.64313	0.518402	0.852832
2634	O	0.599817	0.517684	0.516304
2635	H	0.641001	0.493954	0.857919
2636	H	0.60149	0.493266	0.510166
2637	C	0.606031	0.704171	0.684535
2638	C	0.587504	0.694389	0.727302
2639	C	0.552114	0.694592	0.728857
2640	C	0.534548	0.705398	0.687248
2641	C	0.551284	0.710712	0.642716
2642	C	0.586793	0.713168	0.642794
2643	H	0.599623	0.685269	0.757446
2644	H	0.508902	0.703886	0.686662
2645	C	0.64191	0.704176	0.682445
2646	C	0.661062	0.712554	0.724972
2647	C	0.696436	0.709458	0.725679
2648	C	0.713391	0.703682	0.681346
2649	C	0.695903	0.694728	0.6383
2650	C	0.660476	0.695236	0.639192
2651	H	0.738994	0.701984	0.682246
2652	H	0.648315	0.686963	0.608182
2653	O	0.602235	0.726144	0.602239
2654	O	0.645624	0.72535	0.765876
2655	H	0.604443	0.750564	0.60827
2656	H	0.643791	0.749785	0.760745
