data_C864H432_2018-02-15_12:33:46
#******************************************
#
# CIF file created by Zeo++
# Zeo++ is an open source package to
# analyze microporous materials
#
#*******************************************

_cell_length_a		31.9893   
_cell_length_b		31.9893   
_cell_length_c		25.3375   
_cell_angle_alpha		90   
_cell_angle_beta		90   
_cell_angle_gamma		90   

_symmetry_space_group_name_H-M		'P1'
_symmetry_Int_Tables_number		1
_symmetry_cell_setting		Tetragonal

loop_
_symmetry_equiv_pos_as_xyz
'+x,+y,+z'

loop_
_atom_site_label
_atom_site_type_symbol
_atom_site_fract_x
_atom_site_fract_y
_atom_site_fract_z
1	C	0.040382	0.085552	0.160347
2	C	0.074827	0.096193	0.191676
3	C	0.079623	0.080106	0.242705
4	C	0.051697	0.045818	0.256627
5	C	0.019473	0.029853	0.222347
6	C	0.012738	0.053892	0.175974
7	H	0.056784	0.030278	0.29129
8	H	0.32348	0.044931	0.149472
9	H	0.093307	0.120323	0.178726
10	C	0.145269	0.100066	0.660338
11	C	0.110836	0.089384	0.691663
12	C	0.105925	0.105514	0.742659
13	C	0.133877	0.139784	0.756591
14	C	0.166117	0.155765	0.722345
15	C	0.172897	0.131735	0.675979
16	H	0.128706	0.155386	0.791188
17	H	0.19548	0.140728	0.649489
18	H	0.092375	0.065246	0.678694
19	C	0.266539	0.207002	0.410503
20	C	0.256086	0.241586	0.441709
21	C	0.272171	0.246339	0.492764
22	C	0.306402	0.218324	0.50668
23	C	0.322551	0.186374	0.472127
24	C	0.298371	0.179498	0.425923
25	H	0.321976	0.223398	0.541321
26	H	0.307325	0.156939	0.399377
27	H	0.231838	0.259957	0.428883
28	C	0.252242	0.311812	0.910418
29	C	0.262743	0.27727	0.941684
30	C	0.246712	0.272532	0.992771
31	C	0.212457	0.300517	0.006687
32	C	0.196271	0.332455	0.972149
33	C	0.220403	0.339294	0.925909
34	H	0.196956	0.295477	0.041389
35	H	0.211476	0.028531	0.899364
36	H	0.287003	0.258918	0.928854
37	C	0.145305	0.085658	0.608403
38	C	0.110707	0.096141	0.577216
39	C	0.105753	0.079924	0.526252
40	C	0.133753	0.045704	0.512297
41	C	0.165909	0.029693	0.546625
42	C	0.172773	0.053817	0.592869
43	H	0.128618	0.030135	0.477664
44	H	0.195384	0.0449	0.619371
45	H	0.092371	0.120409	0.590075
46	C	0.040343	0.099988	0.10842
47	C	0.074929	0.0895	0.07721
48	C	0.079894	0.105725	0.02626
49	C	0.051907	0.139955	0.012324
50	C	0.019722	0.155945	0.046625
51	C	0.012861	0.131821	0.092875
52	H	0.057012	0.155519	0.977679
53	H	0.323586	0.140746	0.11937
54	H	0.093239	0.065221	0.090104
55	C	0.252144	0.207103	0.358544
56	C	0.262696	0.241651	0.327328
57	C	0.24671	0.246369	0.276243
58	C	0.212412	0.218468	0.262292
59	C	0.196454	0.186191	0.296499
60	C	0.220521	0.179431	0.342837
61	H	0.196884	0.223585	0.227626
62	H	0.211626	0.156786	0.369299
63	H	0.28693	0.259996	0.340267
64	C	0.266708	0.311766	0.858511
65	C	0.256137	0.277294	0.827202
66	C	0.272231	0.272537	0.776163
67	C	0.306526	0.300477	0.762274
68	C	0.322504	0.332673	0.796591
69	C	0.29848	0.33931	0.842989
70	H	0.32206	0.295418	0.727602
71	H	0.307324	0.028667	0.869428
72	H	0.231954	0.258855	0.840072
73	C	0.207047	0.252184	0.660437
74	C	0.241524	0.262829	0.691719
75	C	0.246568	0.246577	0.742643
76	C	0.218587	0.212336	0.756575
77	C	0.186393	0.196331	0.722294
78	C	0.179487	0.220437	0.676026
79	H	0.223711	0.19677	0.791216
80	H	0.156896	0.21144	0.649552
81	H	0.259955	0.286994	0.678758
82	C	0.311889	0.266723	0.160456
83	C	0.277429	0.256071	0.191755
84	C	0.272505	0.272218	0.242746
85	C	0.300447	0.306493	0.256685
86	C	0.332445	0.322667	0.22222
87	C	0.33941	0.298513	0.176011
88	H	0.295298	0.32207	0.291307
89	H	0.028637	0.307536	0.149509
90	H	0.258991	0.23191	0.1788
91	C	0.099919	0.040452	0.910505
92	C	0.089507	0.075053	0.941692
93	C	0.1056	0.079795	0.992743
94	C	0.139807	0.051751	0.006655
95	C	0.155847	0.01967	0.972212
96	C	0.131688	0.012885	0.925961
97	H	0.155393	0.05683	0.041288
98	H	0.140597	0.32363	0.899431
99	H	0.06528	0.093449	0.928862
100	C	0.085694	0.145222	0.410507
101	C	0.096176	0.110661	0.441753
102	C	0.079998	0.105829	0.492752
103	C	0.045747	0.133806	0.506676
104	C	0.029612	0.165766	0.472147
105	C	0.053776	0.172633	0.425938
106	H	0.030203	0.128727	0.541341
107	H	0.044857	0.195207	0.399389
108	H	0.120452	0.092319	0.428938
109	C	0.311944	0.25231	0.108521
110	C	0.277384	0.262845	0.077299
111	C	0.272533	0.246711	0.026289
112	C	0.300478	0.212447	0.012342
113	C	0.33272	0.19648	0.046583
114	C	0.339457	0.220518	0.092941
115	H	0.295339	0.196889	0.977702
116	H	0.028726	0.211591	0.119446
117	H	0.259043	0.287109	0.090149
118	C	0.206988	0.2666	0.608502
119	C	0.241541	0.256081	0.577252
120	C	0.246459	0.27227	0.526276
121	C	0.218453	0.306486	0.512336
122	C	0.186311	0.322529	0.546673
123	C	0.179514	0.298435	0.59296
124	H	0.223524	0.32202	0.477664
125	H	0.156927	0.307374	0.619478
126	H	0.259857	0.231809	0.590146
127	C	0.085487	0.04054	0.858562
128	C	0.096044	0.075056	0.827285
129	C	0.080099	0.079698	0.776159
130	C	0.045812	0.051774	0.762219
131	C	0.029648	0.019801	0.796717
132	C	0.053776	0.012933	0.842969
133	H	0.030336	0.056792	0.727492
134	H	0.044856	0.323664	0.869471
135	H	0.120293	0.093391	0.840198
136	C	0.100117	0.145146	0.358578
137	C	0.089432	0.110693	0.32729
138	C	0.105458	0.105901	0.276226
139	C	0.139806	0.133759	0.262303
140	C	0.155859	0.165975	0.296539
141	C	0.131896	0.172659	0.342978
142	H	0.155307	0.128654	0.227615
143	H	0.140826	0.195329	0.369393
144	H	0.065216	0.092309	0.340193
145	C	0.040382	0.418887	0.160347
146	C	0.074827	0.429528	0.191676
147	C	0.079623	0.413441	0.242705
148	C	0.051697	0.379151	0.256627
149	C	0.019473	0.363187	0.222347
150	C	0.012738	0.387226	0.175974
151	H	0.056784	0.363612	0.29129
152	H	0.32348	0.378264	0.149472
153	H	0.093307	0.453657	0.178726
154	C	0.145269	0.433401	0.660338
155	C	0.110836	0.422719	0.691663
156	C	0.105925	0.438849	0.742659
157	C	0.133877	0.473117	0.756591
158	C	0.166117	0.489097	0.722345
159	C	0.172897	0.465068	0.675979
160	H	0.128706	0.488719	0.791188
161	H	0.19548	0.474061	0.649489
162	H	0.092375	0.39858	0.678694
163	C	0.266539	0.540336	0.410503
164	C	0.256086	0.57492	0.441709
165	C	0.272171	0.579674	0.492764
166	C	0.306402	0.551659	0.50668
167	C	0.322551	0.519708	0.472127
168	C	0.298371	0.512833	0.425923
169	H	0.321976	0.556732	0.541321
170	H	0.307325	0.490273	0.399377
171	H	0.231838	0.593292	0.428883
172	C	0.252242	0.645146	0.910418
173	C	0.262743	0.610604	0.941684
174	C	0.246712	0.605864	0.992771
175	C	0.212457	0.633852	0.006687
176	C	0.196271	0.665788	0.972149
177	C	0.220403	0.672627	0.925909
178	H	0.196956	0.62881	0.041389
179	H	0.211476	0.361864	0.899364
180	H	0.287003	0.592251	0.928854
181	C	0.145305	0.418993	0.608403
182	C	0.110707	0.429474	0.577216
183	C	0.105753	0.413257	0.526252
184	C	0.133753	0.379039	0.512297
185	C	0.165909	0.363027	0.546625
186	C	0.172773	0.387151	0.592869
187	H	0.128618	0.363468	0.477664
188	H	0.195384	0.378232	0.619371
189	H	0.092371	0.453742	0.590075
190	C	0.040343	0.433323	0.10842
191	C	0.074929	0.422835	0.07721
192	C	0.079894	0.439059	0.02626
193	C	0.051907	0.473289	0.012324
194	C	0.019722	0.489279	0.046625
195	C	0.012861	0.465155	0.092875
196	H	0.057012	0.488854	0.977679
197	H	0.323586	0.47408	0.11937
198	H	0.093239	0.398555	0.090104
199	C	0.252144	0.540436	0.358544
200	C	0.262696	0.574985	0.327328
201	C	0.24671	0.579703	0.276243
202	C	0.212412	0.551803	0.262292
203	C	0.196454	0.519523	0.296499
204	C	0.220521	0.512765	0.342837
205	H	0.196884	0.55692	0.227626
206	H	0.211626	0.49012	0.369299
207	H	0.28693	0.593329	0.340267
208	C	0.266708	0.645099	0.858511
209	C	0.256137	0.610629	0.827202
210	C	0.272231	0.605871	0.776163
211	C	0.306526	0.633811	0.762274
212	C	0.322504	0.666006	0.796591
213	C	0.29848	0.672646	0.842989
214	H	0.32206	0.62875	0.727602
215	H	0.307324	0.362002	0.869428
216	H	0.231954	0.592188	0.840072
217	C	0.207047	0.585517	0.660437
218	C	0.241524	0.596164	0.691719
219	C	0.246568	0.579909	0.742643
220	C	0.218587	0.545669	0.756575
221	C	0.186393	0.529664	0.722294
222	C	0.179487	0.553772	0.676026
223	H	0.223711	0.530105	0.791216
224	H	0.156896	0.544772	0.649552
225	H	0.259955	0.620329	0.678758
226	C	0.311889	0.600056	0.160456
227	C	0.277429	0.589406	0.191755
228	C	0.272505	0.605552	0.242746
229	C	0.300447	0.639826	0.256685
230	C	0.332445	0.656	0.22222
231	C	0.33941	0.631848	0.176011
232	H	0.295298	0.655403	0.291307
233	H	0.028637	0.64087	0.149509
234	H	0.258991	0.565245	0.1788
235	C	0.099919	0.373784	0.910505
236	C	0.089507	0.408386	0.941692
237	C	0.1056	0.413128	0.992743
238	C	0.139807	0.385085	0.006655
239	C	0.155847	0.353002	0.972212
240	C	0.131688	0.346219	0.925961
241	H	0.155393	0.390164	0.041288
242	H	0.140597	0.656966	0.899431
243	H	0.06528	0.426783	0.928862
244	C	0.085694	0.478556	0.410507
245	C	0.096176	0.443995	0.441753
246	C	0.079998	0.439162	0.492752
247	C	0.045747	0.46714	0.506676
248	C	0.029612	0.499101	0.472147
249	C	0.053776	0.505966	0.425938
250	H	0.030203	0.46206	0.541341
251	H	0.044857	0.528542	0.399389
252	H	0.120452	0.425651	0.428938
253	C	0.311944	0.585642	0.108521
254	C	0.277384	0.59618	0.077299
255	C	0.272533	0.580043	0.026289
256	C	0.300478	0.545782	0.012342
257	C	0.33272	0.529814	0.046583
258	C	0.339457	0.55385	0.092941
259	H	0.295339	0.530224	0.977702
260	H	0.028726	0.544925	0.119446
261	H	0.259043	0.620444	0.090149
262	C	0.206988	0.599934	0.608502
263	C	0.241541	0.589415	0.577252
264	C	0.246459	0.605602	0.526276
265	C	0.218453	0.63982	0.512336
266	C	0.186311	0.655862	0.546673
267	C	0.179514	0.63177	0.59296
268	H	0.223524	0.655353	0.477664
269	H	0.156927	0.640707	0.619478
270	H	0.259857	0.565142	0.590146
271	C	0.085487	0.373875	0.858562
272	C	0.096044	0.408389	0.827285
273	C	0.080099	0.413031	0.776159
274	C	0.045812	0.385107	0.762219
275	C	0.029648	0.353133	0.796717
276	C	0.053776	0.346269	0.842969
277	H	0.030336	0.390127	0.727492
278	H	0.044856	0.656997	0.869471
279	H	0.120293	0.426727	0.840198
280	C	0.100117	0.478478	0.358578
281	C	0.089432	0.444026	0.32729
282	C	0.105458	0.439234	0.276226
283	C	0.139806	0.467093	0.262303
284	C	0.155859	0.499307	0.296539
285	C	0.131896	0.505994	0.342978
286	H	0.155307	0.461988	0.227615
287	H	0.140826	0.528664	0.369393
288	H	0.065216	0.425642	0.340193
289	C	0.040382	0.75222	0.160347
290	C	0.074827	0.762861	0.191676
291	C	0.079623	0.746774	0.242705
292	C	0.051697	0.712484	0.256627
293	C	0.019473	0.69652	0.222347
294	C	0.012738	0.720559	0.175974
295	H	0.056784	0.696945	0.29129
296	H	0.32348	0.711597	0.149472
297	H	0.093307	0.78699	0.178726
298	C	0.145269	0.766734	0.660338
299	C	0.110836	0.756052	0.691663
300	C	0.105925	0.772182	0.742659
301	C	0.133877	0.80645	0.756591
302	C	0.166117	0.822434	0.722345
303	C	0.172897	0.798404	0.675979
304	H	0.128706	0.822052	0.791188
305	H	0.19548	0.807394	0.649489
306	H	0.092375	0.731913	0.678694
307	C	0.266539	0.873669	0.410503
308	C	0.256086	0.908253	0.441709
309	C	0.272171	0.913007	0.492764
310	C	0.306402	0.884992	0.50668
311	C	0.322551	0.853041	0.472127
312	C	0.298371	0.846166	0.425923
313	H	0.321976	0.890065	0.541321
314	H	0.307325	0.823606	0.399377
315	H	0.231838	0.926625	0.428883
316	C	0.252242	0.978479	0.910418
317	C	0.262743	0.943937	0.941684
318	C	0.246712	0.939201	0.992771
319	C	0.212457	0.967185	0.006687
320	C	0.196271	0.999121	0.972149
321	C	0.220403	0.00596	0.925909
322	H	0.196956	0.962146	0.041389
323	H	0.211476	0.695197	0.899364
324	H	0.287003	0.925587	0.928854
325	C	0.145305	0.752326	0.608403
326	C	0.110707	0.762807	0.577216
327	C	0.105753	0.746593	0.526252
328	C	0.133753	0.712372	0.512297
329	C	0.165909	0.69636	0.546625
330	C	0.172773	0.720484	0.592869
331	H	0.128618	0.696804	0.477664
332	H	0.195384	0.711568	0.619371
333	H	0.092371	0.787075	0.590075
334	C	0.040343	0.766656	0.10842
335	C	0.074929	0.756168	0.07721
336	C	0.079894	0.772392	0.02626
337	C	0.051907	0.806622	0.012324
338	C	0.019722	0.822612	0.046625
339	C	0.012861	0.798488	0.092875
340	H	0.057012	0.822187	0.977679
341	H	0.323586	0.807413	0.11937
342	H	0.093239	0.731888	0.090104
343	C	0.252144	0.873769	0.358544
344	C	0.262696	0.908318	0.327328
345	C	0.24671	0.913036	0.276243
346	C	0.212412	0.885136	0.262292
347	C	0.196454	0.852859	0.296499
348	C	0.220521	0.846098	0.342837
349	H	0.196884	0.890253	0.227626
350	H	0.211626	0.823453	0.369299
351	H	0.28693	0.926662	0.340267
352	C	0.266708	0.978432	0.858511
353	C	0.256137	0.943962	0.827202
354	C	0.272231	0.939204	0.776163
355	C	0.306526	0.967144	0.762274
356	C	0.322504	0.999339	0.796591
357	C	0.29848	0.005979	0.842989
358	H	0.32206	0.962086	0.727602
359	H	0.307324	0.695335	0.869428
360	H	0.231954	0.925521	0.840072
361	C	0.207047	0.918853	0.660437
362	C	0.241524	0.929497	0.691719
363	C	0.246568	0.913245	0.742643
364	C	0.218587	0.879002	0.756575
365	C	0.186393	0.862997	0.722294
366	C	0.179487	0.887105	0.676026
367	H	0.223711	0.863438	0.791216
368	H	0.156896	0.878108	0.649552
369	H	0.259955	0.953662	0.678758
370	C	0.311889	0.933389	0.160456
371	C	0.277429	0.922739	0.191755
372	C	0.272505	0.938885	0.242746
373	C	0.300447	0.973162	0.256685
374	C	0.332445	0.989333	0.22222
375	C	0.33941	0.965181	0.176011
376	H	0.295298	0.988736	0.291307
377	H	0.028637	0.974203	0.149509
378	H	0.258991	0.898578	0.1788
379	C	0.099919	0.70712	0.910505
380	C	0.089507	0.741722	0.941692
381	C	0.1056	0.746461	0.992743
382	C	0.139807	0.718418	0.006655
383	C	0.155847	0.686338	0.972212
384	C	0.131688	0.679552	0.925961
385	H	0.155393	0.723497	0.041288
386	H	0.140597	0.990299	0.899431
387	H	0.06528	0.760116	0.928862
388	C	0.085694	0.811889	0.410507
389	C	0.096176	0.777328	0.441753
390	C	0.079998	0.772495	0.492752
391	C	0.045747	0.800473	0.506676
392	C	0.029612	0.832434	0.472147
393	C	0.053776	0.839299	0.425938
394	H	0.030203	0.795393	0.541341
395	H	0.044857	0.861875	0.399389
396	H	0.120452	0.758987	0.428938
397	C	0.311944	0.918978	0.108521
398	C	0.277384	0.929513	0.077299
399	C	0.272533	0.913379	0.026289
400	C	0.300478	0.879115	0.012342
401	C	0.33272	0.863147	0.046583
402	C	0.339457	0.887186	0.092941
403	H	0.295339	0.863557	0.977702
404	H	0.028726	0.878258	0.119446
405	H	0.259043	0.953777	0.090149
406	C	0.206988	0.933267	0.608502
407	C	0.241541	0.922748	0.577252
408	C	0.246459	0.938938	0.526276
409	C	0.218453	0.973153	0.512336
410	C	0.186311	0.989199	0.546673
411	C	0.179514	0.965103	0.59296
412	H	0.223524	0.988686	0.477664
413	H	0.156927	0.97404	0.619478
414	H	0.259857	0.898475	0.590146
415	C	0.085487	0.707208	0.858562
416	C	0.096044	0.741722	0.827285
417	C	0.080099	0.746364	0.776159
418	C	0.045812	0.71844	0.762219
419	C	0.029648	0.686469	0.796717
420	C	0.053776	0.679602	0.842969
421	H	0.030336	0.72346	0.727492
422	H	0.044856	0.99033	0.869471
423	H	0.120293	0.76006	0.840198
424	C	0.100117	0.811814	0.358578
425	C	0.089432	0.777359	0.32729
426	C	0.105458	0.772567	0.276226
427	C	0.139806	0.800426	0.262303
428	C	0.155859	0.832643	0.296539
429	C	0.131896	0.839327	0.342978
430	H	0.155307	0.795321	0.227615
431	H	0.140826	0.861997	0.369393
432	H	0.065216	0.758978	0.340193
433	C	0.373715	0.085552	0.160347
434	C	0.408161	0.096193	0.191676
435	C	0.412956	0.080106	0.242705
436	C	0.385031	0.045818	0.256627
437	C	0.352805	0.029853	0.222347
438	C	0.346072	0.053892	0.175974
439	H	0.390118	0.030278	0.29129
440	H	0.656816	0.044931	0.149472
441	H	0.426639	0.120323	0.178726
442	C	0.478603	0.100066	0.660338
443	C	0.44417	0.089384	0.691663
444	C	0.439259	0.105514	0.742659
445	C	0.467209	0.139784	0.756591
446	C	0.499451	0.155765	0.722345
447	C	0.506231	0.131735	0.675979
448	H	0.462038	0.155386	0.791188
449	H	0.528814	0.140728	0.649489
450	H	0.425711	0.065246	0.678694
451	C	0.599872	0.207002	0.410503
452	C	0.589418	0.241586	0.441709
453	C	0.605505	0.246339	0.492764
454	C	0.639735	0.218324	0.50668
455	C	0.655884	0.186374	0.472127
456	C	0.631704	0.179498	0.425923
457	H	0.655309	0.223398	0.541321
458	H	0.640657	0.156939	0.399377
459	H	0.565173	0.259957	0.428883
460	C	0.585576	0.311812	0.910418
461	C	0.596077	0.27727	0.941684
462	C	0.580046	0.272532	0.992771
463	C	0.545791	0.300517	0.006687
464	C	0.529605	0.332455	0.972149
465	C	0.553738	0.339294	0.925909
466	H	0.530289	0.295477	0.041389
467	H	0.54481	0.028531	0.899364
468	H	0.620338	0.258918	0.928854
469	C	0.478638	0.085658	0.608403
470	C	0.444042	0.096141	0.577216
471	C	0.439087	0.079924	0.526252
472	C	0.467087	0.045704	0.512297
473	C	0.499241	0.029693	0.546625
474	C	0.506106	0.053817	0.592869
475	H	0.461951	0.030135	0.477664
476	H	0.528717	0.0449	0.619371
477	H	0.425704	0.120409	0.590075
478	C	0.373678	0.099988	0.10842
479	C	0.408264	0.0895	0.07721
480	C	0.413228	0.105725	0.02626
481	C	0.385241	0.139955	0.012324
482	C	0.353055	0.155945	0.046625
483	C	0.346194	0.131821	0.092875
484	H	0.390346	0.155519	0.977679
485	H	0.656919	0.140746	0.11937
486	H	0.426573	0.065221	0.090104
487	C	0.585476	0.207103	0.358544
488	C	0.59603	0.241651	0.327328
489	C	0.580043	0.246369	0.276243
490	C	0.545748	0.218468	0.262292
491	C	0.529786	0.186191	0.296499
492	C	0.553857	0.179431	0.342837
493	H	0.530217	0.223585	0.227626
494	H	0.54496	0.156786	0.369299
495	H	0.620263	0.259996	0.340267
496	C	0.600041	0.311766	0.858511
497	C	0.589472	0.277294	0.827202
498	C	0.605564	0.272537	0.776163
499	C	0.63986	0.300477	0.762274
500	C	0.655837	0.332673	0.796591
501	C	0.631814	0.33931	0.842989
502	H	0.655393	0.295418	0.727602
503	H	0.640657	0.028667	0.869428
504	H	0.565288	0.258855	0.840072
505	C	0.54038	0.252184	0.660437
506	C	0.574857	0.262829	0.691719
507	C	0.579903	0.246577	0.742643
508	C	0.551921	0.212336	0.756575
509	C	0.519726	0.196331	0.722294
510	C	0.512821	0.220437	0.676026
511	H	0.557045	0.19677	0.791216
512	H	0.490229	0.21144	0.649552
513	H	0.593288	0.286994	0.678758
514	C	0.645224	0.266723	0.160456
515	C	0.610763	0.256071	0.191755
516	C	0.605839	0.272218	0.242746
517	C	0.63378	0.306493	0.256685
518	C	0.665778	0.322667	0.22222
519	C	0.672743	0.298513	0.176011
520	H	0.628631	0.32207	0.291307
521	H	0.361971	0.307536	0.149509
522	H	0.592326	0.23191	0.1788
523	C	0.433254	0.040452	0.910505
524	C	0.422841	0.075053	0.941692
525	C	0.438934	0.079795	0.992743
526	C	0.473139	0.051751	0.006655
527	C	0.489182	0.01967	0.972212
528	C	0.465021	0.012885	0.925961
529	H	0.488725	0.05683	0.041288
530	H	0.47393	0.32363	0.899431
531	H	0.398614	0.093449	0.928862
532	C	0.419027	0.145222	0.410507
533	C	0.429509	0.110661	0.441753
534	C	0.413332	0.105829	0.492752
535	C	0.37908	0.133806	0.506676
536	C	0.362946	0.165766	0.472147
537	C	0.38711	0.172633	0.425938
538	H	0.363537	0.128727	0.541341
539	H	0.378192	0.195207	0.399389
540	H	0.453786	0.092319	0.428938
541	C	0.645278	0.25231	0.108521
542	C	0.610719	0.262845	0.077299
543	C	0.605868	0.246711	0.026289
544	C	0.633811	0.212447	0.012342
545	C	0.666053	0.19648	0.046583
546	C	0.67279	0.220518	0.092941
547	H	0.628672	0.196889	0.977702
548	H	0.362058	0.211591	0.119446
549	H	0.592376	0.287109	0.090149
550	C	0.540321	0.2666	0.608502
551	C	0.574873	0.256081	0.577252
552	C	0.579793	0.27227	0.526276
553	C	0.551787	0.306486	0.512336
554	C	0.519645	0.322529	0.546673
555	C	0.512849	0.298435	0.59296
556	H	0.556858	0.32202	0.477664
557	H	0.49026	0.307374	0.619478
558	H	0.593192	0.231809	0.590146
559	C	0.418821	0.04054	0.858562
560	C	0.429378	0.075056	0.827285
561	C	0.413432	0.079698	0.776159
562	C	0.379145	0.051774	0.762219
563	C	0.36298	0.019801	0.796717
564	C	0.38711	0.012933	0.842969
565	H	0.363671	0.056792	0.727492
566	H	0.378189	0.323664	0.869471
567	H	0.453626	0.093391	0.840198
568	C	0.433451	0.145146	0.358578
569	C	0.422766	0.110693	0.32729
570	C	0.438793	0.105901	0.276226
571	C	0.473139	0.133759	0.262303
572	C	0.489194	0.165975	0.296539
573	C	0.46523	0.172659	0.342978
574	H	0.488641	0.128654	0.227615
575	H	0.474158	0.195329	0.369393
576	H	0.398552	0.092309	0.340193
577	C	0.373715	0.418887	0.160347
578	C	0.408161	0.429528	0.191676
579	C	0.412956	0.413441	0.242705
580	C	0.385031	0.379151	0.256627
581	C	0.352805	0.363187	0.222347
582	C	0.346072	0.387226	0.175974
583	H	0.390118	0.363612	0.29129
584	H	0.656816	0.378264	0.149472
585	H	0.426639	0.453657	0.178726
586	C	0.478603	0.433401	0.660338
587	C	0.44417	0.422719	0.691663
588	C	0.439259	0.438849	0.742659
589	C	0.467209	0.473117	0.756591
590	C	0.499451	0.489097	0.722345
591	C	0.506231	0.465068	0.675979
592	H	0.462038	0.488719	0.791188
593	H	0.528814	0.474061	0.649489
594	H	0.425711	0.39858	0.678694
595	C	0.599872	0.540336	0.410503
596	C	0.589418	0.57492	0.441709
597	C	0.605505	0.579674	0.492764
598	C	0.639735	0.551659	0.50668
599	C	0.655884	0.519708	0.472127
600	C	0.631704	0.512833	0.425923
601	H	0.655309	0.556732	0.541321
602	H	0.640657	0.490273	0.399377
603	H	0.565173	0.593292	0.428883
604	C	0.585576	0.645146	0.910418
605	C	0.596077	0.610604	0.941684
606	C	0.580046	0.605864	0.992771
607	C	0.545791	0.633852	0.006687
608	C	0.529605	0.665788	0.972149
609	C	0.553738	0.672627	0.925909
610	H	0.530289	0.62881	0.041389
611	H	0.54481	0.361864	0.899364
612	H	0.620338	0.592251	0.928854
613	C	0.478638	0.418993	0.608403
614	C	0.444042	0.429474	0.577216
615	C	0.439087	0.413257	0.526252
616	C	0.467087	0.379039	0.512297
617	C	0.499241	0.363027	0.546625
618	C	0.506106	0.387151	0.592869
619	H	0.461951	0.363468	0.477664
620	H	0.528717	0.378232	0.619371
621	H	0.425704	0.453742	0.590075
622	C	0.373678	0.433323	0.10842
623	C	0.408264	0.422835	0.07721
624	C	0.413228	0.439059	0.02626
625	C	0.385241	0.473289	0.012324
626	C	0.353055	0.489279	0.046625
627	C	0.346194	0.465155	0.092875
628	H	0.390346	0.488854	0.977679
629	H	0.656919	0.47408	0.11937
630	H	0.426573	0.398555	0.090104
631	C	0.585476	0.540436	0.358544
632	C	0.59603	0.574985	0.327328
633	C	0.580043	0.579703	0.276243
634	C	0.545748	0.551803	0.262292
635	C	0.529786	0.519523	0.296499
636	C	0.553857	0.512765	0.342837
637	H	0.530217	0.55692	0.227626
638	H	0.54496	0.49012	0.369299
639	H	0.620263	0.593329	0.340267
640	C	0.600041	0.645099	0.858511
641	C	0.589472	0.610629	0.827202
642	C	0.605564	0.605871	0.776163
643	C	0.63986	0.633811	0.762274
644	C	0.655837	0.666006	0.796591
645	C	0.631814	0.672646	0.842989
646	H	0.655393	0.62875	0.727602
647	H	0.640657	0.362002	0.869428
648	H	0.565288	0.592188	0.840072
649	C	0.54038	0.585517	0.660437
650	C	0.574857	0.596164	0.691719
651	C	0.579903	0.579909	0.742643
652	C	0.551921	0.545669	0.756575
653	C	0.519726	0.529664	0.722294
654	C	0.512821	0.553772	0.676026
655	H	0.557045	0.530105	0.791216
656	H	0.490229	0.544772	0.649552
657	H	0.593288	0.620329	0.678758
658	C	0.645224	0.600056	0.160456
659	C	0.610763	0.589406	0.191755
660	C	0.605839	0.605552	0.242746
661	C	0.63378	0.639826	0.256685
662	C	0.665778	0.656	0.22222
663	C	0.672743	0.631848	0.176011
664	H	0.628631	0.655403	0.291307
665	H	0.361971	0.64087	0.149509
666	H	0.592326	0.565245	0.1788
667	C	0.433254	0.373784	0.910505
668	C	0.422841	0.408386	0.941692
669	C	0.438934	0.413128	0.992743
670	C	0.473139	0.385085	0.006655
671	C	0.489182	0.353002	0.972212
672	C	0.465021	0.346219	0.925961
673	H	0.488725	0.390164	0.041288
674	H	0.47393	0.656966	0.899431
675	H	0.398614	0.426783	0.928862
676	C	0.419027	0.478556	0.410507
677	C	0.429509	0.443995	0.441753
678	C	0.413332	0.439162	0.492752
679	C	0.37908	0.46714	0.506676
680	C	0.362946	0.499101	0.472147
681	C	0.38711	0.505966	0.425938
682	H	0.363537	0.46206	0.541341
683	H	0.378192	0.528542	0.399389
684	H	0.453786	0.425651	0.428938
685	C	0.645278	0.585642	0.108521
686	C	0.610719	0.59618	0.077299
687	C	0.605868	0.580043	0.026289
688	C	0.633811	0.545782	0.012342
689	C	0.666053	0.529814	0.046583
690	C	0.67279	0.55385	0.092941
691	H	0.628672	0.530224	0.977702
692	H	0.362058	0.544925	0.119446
693	H	0.592376	0.620444	0.090149
694	C	0.540321	0.599934	0.608502
695	C	0.574873	0.589415	0.577252
696	C	0.579793	0.605602	0.526276
697	C	0.551787	0.63982	0.512336
698	C	0.519645	0.655862	0.546673
699	C	0.512849	0.63177	0.59296
700	H	0.556858	0.655353	0.477664
701	H	0.49026	0.640707	0.619478
702	H	0.593192	0.565142	0.590146
703	C	0.418821	0.373875	0.858562
704	C	0.429378	0.408389	0.827285
705	C	0.413432	0.413031	0.776159
706	C	0.379145	0.385107	0.762219
707	C	0.36298	0.353133	0.796717
708	C	0.38711	0.346269	0.842969
709	H	0.363671	0.390127	0.727492
710	H	0.378189	0.656997	0.869471
711	H	0.453626	0.426727	0.840198
712	C	0.433451	0.478478	0.358578
713	C	0.422766	0.444026	0.32729
714	C	0.438793	0.439234	0.276226
715	C	0.473139	0.467093	0.262303
716	C	0.489194	0.499307	0.296539
717	C	0.46523	0.505994	0.342978
718	H	0.488641	0.461988	0.227615
719	H	0.474158	0.528664	0.369393
720	H	0.398552	0.425642	0.340193
721	C	0.373715	0.75222	0.160347
722	C	0.408161	0.762861	0.191676
723	C	0.412956	0.746774	0.242705
724	C	0.385031	0.712484	0.256627
725	C	0.352805	0.69652	0.222347
726	C	0.346072	0.720559	0.175974
727	H	0.390118	0.696945	0.29129
728	H	0.656816	0.711597	0.149472
729	H	0.426639	0.78699	0.178726
730	C	0.478603	0.766734	0.660338
731	C	0.44417	0.756052	0.691663
732	C	0.439259	0.772182	0.742659
733	C	0.467209	0.80645	0.756591
734	C	0.499451	0.822434	0.722345
735	C	0.506231	0.798404	0.675979
736	H	0.462038	0.822052	0.791188
737	H	0.528814	0.807394	0.649489
738	H	0.425711	0.731913	0.678694
739	C	0.599872	0.873669	0.410503
740	C	0.589418	0.908253	0.441709
741	C	0.605505	0.913007	0.492764
742	C	0.639735	0.884992	0.50668
743	C	0.655884	0.853041	0.472127
744	C	0.631704	0.846166	0.425923
745	H	0.655309	0.890065	0.541321
746	H	0.640657	0.823606	0.399377
747	H	0.565173	0.926625	0.428883
748	C	0.585576	0.978479	0.910418
749	C	0.596077	0.943937	0.941684
750	C	0.580046	0.939201	0.992771
751	C	0.545791	0.967185	0.006687
752	C	0.529605	0.999121	0.972149
753	C	0.553738	0.00596	0.925909
754	H	0.530289	0.962146	0.041389
755	H	0.54481	0.695197	0.899364
756	H	0.620338	0.925587	0.928854
757	C	0.478638	0.752326	0.608403
758	C	0.444042	0.762807	0.577216
759	C	0.439087	0.746593	0.526252
760	C	0.467087	0.712372	0.512297
761	C	0.499241	0.69636	0.546625
762	C	0.506106	0.720484	0.592869
763	H	0.461951	0.696804	0.477664
764	H	0.528717	0.711568	0.619371
765	H	0.425704	0.787075	0.590075
766	C	0.373678	0.766656	0.10842
767	C	0.408264	0.756168	0.07721
768	C	0.413228	0.772392	0.02626
769	C	0.385241	0.806622	0.012324
770	C	0.353055	0.822612	0.046625
771	C	0.346194	0.798488	0.092875
772	H	0.390346	0.822187	0.977679
773	H	0.656919	0.807413	0.11937
774	H	0.426573	0.731888	0.090104
775	C	0.585476	0.873769	0.358544
776	C	0.59603	0.908318	0.327328
777	C	0.580043	0.913036	0.276243
778	C	0.545748	0.885136	0.262292
779	C	0.529786	0.852859	0.296499
780	C	0.553857	0.846098	0.342837
781	H	0.530217	0.890253	0.227626
782	H	0.54496	0.823453	0.369299
783	H	0.620263	0.926662	0.340267
784	C	0.600041	0.978432	0.858511
785	C	0.589472	0.943962	0.827202
786	C	0.605564	0.939204	0.776163
787	C	0.63986	0.967144	0.762274
788	C	0.655837	0.999339	0.796591
789	C	0.631814	0.005979	0.842989
790	H	0.655393	0.962086	0.727602
791	H	0.640657	0.695335	0.869428
792	H	0.565288	0.925521	0.840072
793	C	0.54038	0.918853	0.660437
794	C	0.574857	0.929497	0.691719
795	C	0.579903	0.913245	0.742643
796	C	0.551921	0.879002	0.756575
797	C	0.519726	0.862997	0.722294
798	C	0.512821	0.887105	0.676026
799	H	0.557045	0.863438	0.791216
800	H	0.490229	0.878108	0.649552
801	H	0.593288	0.953662	0.678758
802	C	0.645224	0.933389	0.160456
803	C	0.610763	0.922739	0.191755
804	C	0.605839	0.938885	0.242746
805	C	0.63378	0.973162	0.256685
806	C	0.665778	0.989333	0.22222
807	C	0.672743	0.965181	0.176011
808	H	0.628631	0.988736	0.291307
809	H	0.361971	0.974203	0.149509
810	H	0.592326	0.898578	0.1788
811	C	0.433254	0.70712	0.910505
812	C	0.422841	0.741722	0.941692
813	C	0.438934	0.746461	0.992743
814	C	0.473139	0.718418	0.006655
815	C	0.489182	0.686338	0.972212
816	C	0.465021	0.679552	0.925961
817	H	0.488725	0.723497	0.041288
818	H	0.47393	0.990299	0.899431
819	H	0.398614	0.760116	0.928862
820	C	0.419027	0.811889	0.410507
821	C	0.429509	0.777328	0.441753
822	C	0.413332	0.772495	0.492752
823	C	0.37908	0.800473	0.506676
824	C	0.362946	0.832434	0.472147
825	C	0.38711	0.839299	0.425938
826	H	0.363537	0.795393	0.541341
827	H	0.378192	0.861875	0.399389
828	H	0.453786	0.758987	0.428938
829	C	0.645278	0.918978	0.108521
830	C	0.610719	0.929513	0.077299
831	C	0.605868	0.913379	0.026289
832	C	0.633811	0.879115	0.012342
833	C	0.666053	0.863147	0.046583
834	C	0.67279	0.887186	0.092941
835	H	0.628672	0.863557	0.977702
836	H	0.362058	0.878258	0.119446
837	H	0.592376	0.953777	0.090149
838	C	0.540321	0.933267	0.608502
839	C	0.574873	0.922748	0.577252
840	C	0.579793	0.938938	0.526276
841	C	0.551787	0.973153	0.512336
842	C	0.519645	0.989199	0.546673
843	C	0.512849	0.965103	0.59296
844	H	0.556858	0.988686	0.477664
845	H	0.49026	0.97404	0.619478
846	H	0.593192	0.898475	0.590146
847	C	0.418821	0.707208	0.858562
848	C	0.429378	0.741722	0.827285
849	C	0.413432	0.746364	0.776159
850	C	0.379145	0.71844	0.762219
851	C	0.36298	0.686469	0.796717
852	C	0.38711	0.679602	0.842969
853	H	0.363671	0.72346	0.727492
854	H	0.378189	0.99033	0.869471
855	H	0.453626	0.76006	0.840198
856	C	0.433451	0.811814	0.358578
857	C	0.422766	0.777359	0.32729
858	C	0.438793	0.772567	0.276226
859	C	0.473139	0.800426	0.262303
860	C	0.489194	0.832643	0.296539
861	C	0.46523	0.839327	0.342978
862	H	0.488641	0.795321	0.227615
863	H	0.474158	0.861997	0.369393
864	H	0.398552	0.758978	0.340193
865	C	0.707048	0.085552	0.160347
866	C	0.741494	0.096193	0.191676
867	C	0.746289	0.080106	0.242705
868	C	0.718364	0.045818	0.256627
869	C	0.686141	0.029853	0.222347
870	C	0.679405	0.053892	0.175974
871	H	0.723451	0.030278	0.29129
872	H	0.990149	0.044931	0.149472
873	H	0.759975	0.120323	0.178726
874	C	0.811936	0.100066	0.660338
875	C	0.777503	0.089384	0.691663
876	C	0.772592	0.105514	0.742659
877	C	0.800545	0.139784	0.756591
878	C	0.832784	0.155765	0.722345
879	C	0.839564	0.131735	0.675979
880	H	0.795375	0.155386	0.791188
881	H	0.862147	0.140728	0.649489
882	H	0.759044	0.065246	0.678694
883	C	0.933205	0.207002	0.410503
884	C	0.922751	0.241586	0.441709
885	C	0.938838	0.246339	0.492764
886	C	0.973068	0.218324	0.50668
887	C	0.989217	0.186374	0.472127
888	C	0.965037	0.179498	0.425923
889	H	0.988642	0.223398	0.541321
890	H	0.973993	0.156939	0.399377
891	H	0.898506	0.259957	0.428883
892	C	0.918909	0.311812	0.910418
893	C	0.92941	0.27727	0.941684
894	C	0.913379	0.272532	0.992771
895	C	0.879124	0.300517	0.006687
896	C	0.862938	0.332455	0.972149
897	C	0.887071	0.339294	0.925909
898	H	0.863622	0.295477	0.041389
899	H	0.878143	0.028531	0.899364
900	H	0.953671	0.258918	0.928854
901	C	0.811974	0.085658	0.608403
902	C	0.777375	0.096141	0.577216
903	C	0.77242	0.079924	0.526252
904	C	0.80042	0.045704	0.512297
905	C	0.832578	0.029693	0.546625
906	C	0.839439	0.053817	0.592869
907	H	0.795284	0.030135	0.477664
908	H	0.86205	0.0449	0.619371
909	H	0.759037	0.120409	0.590075
910	C	0.707011	0.099988	0.10842
911	C	0.741597	0.0895	0.07721
912	C	0.746561	0.105725	0.02626
913	C	0.718574	0.139955	0.012324
914	C	0.686388	0.155945	0.046625
915	C	0.67953	0.131821	0.092875
916	H	0.723679	0.155519	0.977679
917	H	0.990252	0.140746	0.11937
918	H	0.759906	0.065221	0.090104
919	C	0.918813	0.207103	0.358544
920	C	0.929363	0.241651	0.327328
921	C	0.913376	0.246369	0.276243
922	C	0.879081	0.218468	0.262292
923	C	0.863122	0.186191	0.296499
924	C	0.88719	0.179431	0.342837
925	H	0.86355	0.223585	0.227626
926	H	0.878293	0.156786	0.369299
927	H	0.953596	0.259996	0.340267
928	C	0.933377	0.311766	0.858511
929	C	0.922805	0.277294	0.827202
930	C	0.938897	0.272537	0.776163
931	C	0.973193	0.300477	0.762274
932	C	0.98917	0.332673	0.796591
933	C	0.965147	0.33931	0.842989
934	H	0.98873	0.295418	0.727602
935	H	0.97399	0.028667	0.869428
936	H	0.898621	0.258855	0.840072
937	C	0.873713	0.252184	0.660437
938	C	0.90819	0.262829	0.691719
939	C	0.913236	0.246577	0.742643
940	C	0.885254	0.212336	0.756575
941	C	0.853059	0.196331	0.722294
942	C	0.846154	0.220437	0.676026
943	H	0.890378	0.19677	0.791216
944	H	0.823562	0.21144	0.649552
945	H	0.926621	0.286994	0.678758
946	C	0.978557	0.266723	0.160456
947	C	0.944096	0.256071	0.191755
948	C	0.939172	0.272218	0.242746
949	C	0.967113	0.306493	0.256685
950	C	0.999111	0.322667	0.22222
951	C	0.006076	0.298513	0.176011
952	H	0.961964	0.32207	0.291307
953	H	0.695304	0.307536	0.149509
954	H	0.925659	0.23191	0.1788
955	C	0.766587	0.040452	0.910505
956	C	0.756174	0.075053	0.941692
957	C	0.772267	0.079795	0.992743
958	C	0.806475	0.051751	0.006655
959	C	0.822515	0.01967	0.972212
960	C	0.798354	0.012885	0.925961
961	H	0.822062	0.05683	0.041288
962	H	0.807263	0.32363	0.899431
963	H	0.731947	0.093449	0.928862
964	C	0.75236	0.145222	0.410507
965	C	0.762845	0.110661	0.441753
966	C	0.746665	0.105829	0.492752
967	C	0.712416	0.133806	0.506676
968	C	0.696279	0.165766	0.472147
969	C	0.720443	0.172633	0.425938
970	H	0.69687	0.128727	0.541341
971	H	0.711525	0.195207	0.399389
972	H	0.787119	0.092319	0.428938
973	C	0.978611	0.25231	0.108521
974	C	0.944052	0.262845	0.077299
975	C	0.939201	0.246711	0.026289
976	C	0.967144	0.212447	0.012342
977	C	0.999386	0.19648	0.046583
978	C	0.006126	0.220518	0.092941
979	H	0.962005	0.196889	0.977702
980	H	0.695394	0.211591	0.119446
981	H	0.925712	0.287109	0.090149
982	C	0.873654	0.2666	0.608502
983	C	0.908209	0.256081	0.577252
984	C	0.913126	0.27227	0.526276
985	C	0.88512	0.306486	0.512336
986	C	0.852978	0.322529	0.546673
987	C	0.846182	0.298435	0.59296
988	H	0.890191	0.32202	0.477664
989	H	0.823593	0.307374	0.619478
990	H	0.926525	0.231809	0.590146
991	C	0.752154	0.04054	0.858562
992	C	0.762711	0.075056	0.827285
993	C	0.746765	0.079698	0.776159
994	C	0.712478	0.051774	0.762219
995	C	0.696313	0.019801	0.796717
996	C	0.720443	0.012933	0.842969
997	H	0.697004	0.056792	0.727492
998	H	0.711525	0.323664	0.869471
999	H	0.786959	0.093391	0.840198
1000	C	0.766784	0.145146	0.358578
1001	C	0.756099	0.110693	0.32729
1002	C	0.772126	0.105901	0.276226
1003	C	0.806475	0.133759	0.262303
1004	C	0.822527	0.165975	0.296539
1005	C	0.798563	0.172659	0.342978
1006	H	0.821974	0.128654	0.227615
1007	H	0.807494	0.195329	0.369393
1008	H	0.731885	0.092309	0.340193
1009	C	0.707048	0.418887	0.160347
1010	C	0.741494	0.429528	0.191676
1011	C	0.746289	0.413441	0.242705
1012	C	0.718364	0.379151	0.256627
1013	C	0.686141	0.363187	0.222347
1014	C	0.679405	0.387226	0.175974
1015	H	0.723451	0.363612	0.29129
1016	H	0.990149	0.378264	0.149472
1017	H	0.759975	0.453657	0.178726
1018	C	0.811936	0.433401	0.660338
1019	C	0.777503	0.422719	0.691663
1020	C	0.772592	0.438849	0.742659
1021	C	0.800545	0.473117	0.756591
1022	C	0.832784	0.489097	0.722345
1023	C	0.839564	0.465068	0.675979
1024	H	0.795375	0.488719	0.791188
1025	H	0.862147	0.474061	0.649489
1026	H	0.759044	0.39858	0.678694
1027	C	0.933205	0.540336	0.410503
1028	C	0.922751	0.57492	0.441709
1029	C	0.938838	0.579674	0.492764
1030	C	0.973068	0.551659	0.50668
1031	C	0.989217	0.519708	0.472127
1032	C	0.965037	0.512833	0.425923
1033	H	0.988642	0.556732	0.541321
1034	H	0.973993	0.490273	0.399377
1035	H	0.898506	0.593292	0.428883
1036	C	0.918909	0.645146	0.910418
1037	C	0.92941	0.610604	0.941684
1038	C	0.913379	0.605864	0.992771
1039	C	0.879124	0.633852	0.006687
1040	C	0.862938	0.665788	0.972149
1041	C	0.887071	0.672627	0.925909
1042	H	0.863622	0.62881	0.041389
1043	H	0.878143	0.361864	0.899364
1044	H	0.953671	0.592251	0.928854
1045	C	0.811974	0.418993	0.608403
1046	C	0.777375	0.429474	0.577216
1047	C	0.77242	0.413257	0.526252
1048	C	0.80042	0.379039	0.512297
1049	C	0.832578	0.363027	0.546625
1050	C	0.839439	0.387151	0.592869
1051	H	0.795284	0.363468	0.477664
1052	H	0.86205	0.378232	0.619371
1053	H	0.759037	0.453742	0.590075
1054	C	0.707011	0.433323	0.10842
1055	C	0.741597	0.422835	0.07721
1056	C	0.746561	0.439059	0.02626
1057	C	0.718574	0.473289	0.012324
1058	C	0.686388	0.489279	0.046625
1059	C	0.67953	0.465155	0.092875
1060	H	0.723679	0.488854	0.977679
1061	H	0.990252	0.47408	0.11937
1062	H	0.759906	0.398555	0.090104
1063	C	0.918813	0.540436	0.358544
1064	C	0.929363	0.574985	0.327328
1065	C	0.913376	0.579703	0.276243
1066	C	0.879081	0.551803	0.262292
1067	C	0.863122	0.519523	0.296499
1068	C	0.88719	0.512765	0.342837
1069	H	0.86355	0.55692	0.227626
1070	H	0.878293	0.49012	0.369299
1071	H	0.953596	0.593329	0.340267
1072	C	0.933377	0.645099	0.858511
1073	C	0.922805	0.610629	0.827202
1074	C	0.938897	0.605871	0.776163
1075	C	0.973193	0.633811	0.762274
1076	C	0.98917	0.666006	0.796591
1077	C	0.965147	0.672646	0.842989
1078	H	0.98873	0.62875	0.727602
1079	H	0.97399	0.362002	0.869428
1080	H	0.898621	0.592188	0.840072
1081	C	0.873713	0.585517	0.660437
1082	C	0.90819	0.596164	0.691719
1083	C	0.913236	0.579909	0.742643
1084	C	0.885254	0.545669	0.756575
1085	C	0.853059	0.529664	0.722294
1086	C	0.846154	0.553772	0.676026
1087	H	0.890378	0.530105	0.791216
1088	H	0.823562	0.544772	0.649552
1089	H	0.926621	0.620329	0.678758
1090	C	0.978557	0.600056	0.160456
1091	C	0.944096	0.589406	0.191755
1092	C	0.939172	0.605552	0.242746
1093	C	0.967113	0.639826	0.256685
1094	C	0.999111	0.656	0.22222
1095	C	0.006076	0.631848	0.176011
1096	H	0.961964	0.655403	0.291307
1097	H	0.695304	0.64087	0.149509
1098	H	0.925659	0.565245	0.1788
1099	C	0.766587	0.373784	0.910505
1100	C	0.756174	0.408386	0.941692
1101	C	0.772267	0.413128	0.992743
1102	C	0.806475	0.385085	0.006655
1103	C	0.822515	0.353002	0.972212
1104	C	0.798354	0.346219	0.925961
1105	H	0.822062	0.390164	0.041288
1106	H	0.807263	0.656966	0.899431
1107	H	0.731947	0.426783	0.928862
1108	C	0.75236	0.478556	0.410507
1109	C	0.762845	0.443995	0.441753
1110	C	0.746665	0.439162	0.492752
1111	C	0.712416	0.46714	0.506676
1112	C	0.696279	0.499101	0.472147
1113	C	0.720443	0.505966	0.425938
1114	H	0.69687	0.46206	0.541341
1115	H	0.711525	0.528542	0.399389
1116	H	0.787119	0.425651	0.428938
1117	C	0.978611	0.585642	0.108521
1118	C	0.944052	0.59618	0.077299
1119	C	0.939201	0.580043	0.026289
1120	C	0.967144	0.545782	0.012342
1121	C	0.999386	0.529814	0.046583
1122	C	0.006126	0.55385	0.092941
1123	H	0.962005	0.530224	0.977702
1124	H	0.695394	0.544925	0.119446
1125	H	0.925712	0.620444	0.090149
1126	C	0.873654	0.599934	0.608502
1127	C	0.908209	0.589415	0.577252
1128	C	0.913126	0.605602	0.526276
1129	C	0.88512	0.63982	0.512336
1130	C	0.852978	0.655862	0.546673
1131	C	0.846182	0.63177	0.59296
1132	H	0.890191	0.655353	0.477664
1133	H	0.823593	0.640707	0.619478
1134	H	0.926525	0.565142	0.590146
1135	C	0.752154	0.373875	0.858562
1136	C	0.762711	0.408389	0.827285
1137	C	0.746765	0.413031	0.776159
1138	C	0.712478	0.385107	0.762219
1139	C	0.696313	0.353133	0.796717
1140	C	0.720443	0.346269	0.842969
1141	H	0.697004	0.390127	0.727492
1142	H	0.711525	0.656997	0.869471
1143	H	0.786959	0.426727	0.840198
1144	C	0.766784	0.478478	0.358578
1145	C	0.756099	0.444026	0.32729
1146	C	0.772126	0.439234	0.276226
1147	C	0.806475	0.467093	0.262303
1148	C	0.822527	0.499307	0.296539
1149	C	0.798563	0.505994	0.342978
1150	H	0.821974	0.461988	0.227615
1151	H	0.807494	0.528664	0.369393
1152	H	0.731885	0.425642	0.340193
1153	C	0.707048	0.75222	0.160347
1154	C	0.741494	0.762861	0.191676
1155	C	0.746289	0.746774	0.242705
1156	C	0.718364	0.712484	0.256627
1157	C	0.686141	0.69652	0.222347
1158	C	0.679405	0.720559	0.175974
1159	H	0.723451	0.696945	0.29129
1160	H	0.990149	0.711597	0.149472
1161	H	0.759975	0.78699	0.178726
1162	C	0.811936	0.766734	0.660338
1163	C	0.777503	0.756052	0.691663
1164	C	0.772592	0.772182	0.742659
1165	C	0.800545	0.80645	0.756591
1166	C	0.832784	0.822434	0.722345
1167	C	0.839564	0.798404	0.675979
1168	H	0.795375	0.822052	0.791188
1169	H	0.862147	0.807394	0.649489
1170	H	0.759044	0.731913	0.678694
1171	C	0.933205	0.873669	0.410503
1172	C	0.922751	0.908253	0.441709
1173	C	0.938838	0.913007	0.492764
1174	C	0.973068	0.884992	0.50668
1175	C	0.989217	0.853041	0.472127
1176	C	0.965037	0.846166	0.425923
1177	H	0.988642	0.890065	0.541321
1178	H	0.973993	0.823606	0.399377
1179	H	0.898506	0.926625	0.428883
1180	C	0.918909	0.978479	0.910418
1181	C	0.92941	0.943937	0.941684
1182	C	0.913379	0.939201	0.992771
1183	C	0.879124	0.967185	0.006687
1184	C	0.862938	0.999121	0.972149
1185	C	0.887071	0.00596	0.925909
1186	H	0.863622	0.962146	0.041389
1187	H	0.878143	0.695197	0.899364
1188	H	0.953671	0.925587	0.928854
1189	C	0.811974	0.752326	0.608403
1190	C	0.777375	0.762807	0.577216
1191	C	0.77242	0.746593	0.526252
1192	C	0.80042	0.712372	0.512297
1193	C	0.832578	0.69636	0.546625
1194	C	0.839439	0.720484	0.592869
1195	H	0.795284	0.696804	0.477664
1196	H	0.86205	0.711568	0.619371
1197	H	0.759037	0.787075	0.590075
1198	C	0.707011	0.766656	0.10842
1199	C	0.741597	0.756168	0.07721
1200	C	0.746561	0.772392	0.02626
1201	C	0.718574	0.806622	0.012324
1202	C	0.686388	0.822612	0.046625
1203	C	0.67953	0.798488	0.092875
1204	H	0.723679	0.822187	0.977679
1205	H	0.990252	0.807413	0.11937
1206	H	0.759906	0.731888	0.090104
1207	C	0.918813	0.873769	0.358544
1208	C	0.929363	0.908318	0.327328
1209	C	0.913376	0.913036	0.276243
1210	C	0.879081	0.885136	0.262292
1211	C	0.863122	0.852859	0.296499
1212	C	0.88719	0.846098	0.342837
1213	H	0.86355	0.890253	0.227626
1214	H	0.878293	0.823453	0.369299
1215	H	0.953596	0.926662	0.340267
1216	C	0.933377	0.978432	0.858511
1217	C	0.922805	0.943962	0.827202
1218	C	0.938897	0.939204	0.776163
1219	C	0.973193	0.967144	0.762274
1220	C	0.98917	0.999339	0.796591
1221	C	0.965147	0.005979	0.842989
1222	H	0.98873	0.962086	0.727602
1223	H	0.97399	0.695335	0.869428
1224	H	0.898621	0.925521	0.840072
1225	C	0.873713	0.918853	0.660437
1226	C	0.90819	0.929497	0.691719
1227	C	0.913236	0.913245	0.742643
1228	C	0.885254	0.879002	0.756575
1229	C	0.853059	0.862997	0.722294
1230	C	0.846154	0.887105	0.676026
1231	H	0.890378	0.863438	0.791216
1232	H	0.823562	0.878108	0.649552
1233	H	0.926621	0.953662	0.678758
1234	C	0.978557	0.933389	0.160456
1235	C	0.944096	0.922739	0.191755
1236	C	0.939172	0.938885	0.242746
1237	C	0.967113	0.973162	0.256685
1238	C	0.999111	0.989333	0.22222
1239	C	0.006076	0.965181	0.176011
1240	H	0.961964	0.988736	0.291307
1241	H	0.695304	0.974203	0.149509
1242	H	0.925659	0.898578	0.1788
1243	C	0.766587	0.70712	0.910505
1244	C	0.756174	0.741722	0.941692
1245	C	0.772267	0.746461	0.992743
1246	C	0.806475	0.718418	0.006655
1247	C	0.822515	0.686338	0.972212
1248	C	0.798354	0.679552	0.925961
1249	H	0.822062	0.723497	0.041288
1250	H	0.807263	0.990299	0.899431
1251	H	0.731947	0.760116	0.928862
1252	C	0.75236	0.811889	0.410507
1253	C	0.762845	0.777328	0.441753
1254	C	0.746665	0.772495	0.492752
1255	C	0.712416	0.800473	0.506676
1256	C	0.696279	0.832434	0.472147
1257	C	0.720443	0.839299	0.425938
1258	H	0.69687	0.795393	0.541341
1259	H	0.711525	0.861875	0.399389
1260	H	0.787119	0.758987	0.428938
1261	C	0.978611	0.918978	0.108521
1262	C	0.944052	0.929513	0.077299
1263	C	0.939201	0.913379	0.026289
1264	C	0.967144	0.879115	0.012342
1265	C	0.999386	0.863147	0.046583
1266	C	0.006126	0.887186	0.092941
1267	H	0.962005	0.863557	0.977702
1268	H	0.695394	0.878258	0.119446
1269	H	0.925712	0.953777	0.090149
1270	C	0.873654	0.933267	0.608502
1271	C	0.908209	0.922748	0.577252
1272	C	0.913126	0.938938	0.526276
1273	C	0.88512	0.973153	0.512336
1274	C	0.852978	0.989199	0.546673
1275	C	0.846182	0.965103	0.59296
1276	H	0.890191	0.988686	0.477664
1277	H	0.823593	0.97404	0.619478
1278	H	0.926525	0.898475	0.590146
1279	C	0.752154	0.707208	0.858562
1280	C	0.762711	0.741722	0.827285
1281	C	0.746765	0.746364	0.776159
1282	C	0.712478	0.71844	0.762219
1283	C	0.696313	0.686469	0.796717
1284	C	0.720443	0.679602	0.842969
1285	H	0.697004	0.72346	0.727492
1286	H	0.711525	0.99033	0.869471
1287	H	0.786959	0.76006	0.840198
1288	C	0.766784	0.811814	0.358578
1289	C	0.756099	0.777359	0.32729
1290	C	0.772126	0.772567	0.276226
1291	C	0.806475	0.800426	0.262303
1292	C	0.822527	0.832643	0.296539
1293	C	0.798563	0.839327	0.342978
1294	H	0.821974	0.795321	0.227615
1295	H	0.807494	0.861997	0.369393
1296	H	0.731885	0.758978	0.340193
