data_C1008H432O72_2018-02-15_12:14:33
#******************************************
#
# CIF file created by Zeo++
# Zeo++ is an open source package to
# analyze microporous materials
#
#*******************************************

_cell_length_a		30.6897   
_cell_length_b		30.6897   
_cell_length_c		28.9346   
_cell_angle_alpha		90   
_cell_angle_beta		90   
_cell_angle_gamma		90   

_symmetry_space_group_name_H-M		'P1'
_symmetry_Int_Tables_number		1
_symmetry_cell_setting		Tetragonal

loop_
_symmetry_equiv_pos_as_xyz
'+x,+y,+z'

loop_
_atom_site_label
_atom_site_type_symbol
_atom_site_fract_x
_atom_site_fract_y
_atom_site_fract_z
1	C	0.169182	0.00375	0.028112
2	C	0.201433	0.314583	0.053499
3	C	0.201193	0.312798	0.102382
4	C	0.169012	0.338319	0.125443
5	C	0.136684	0.029686	0.101558
6	C	0.135975	0.026276	0.052458
7	H	0.226008	0.299236	0.035787
8	H	0.169117	0.338896	0.160837
9	C	0.170608	0.003344	0.479198
10	C	0.20384	0.025443	0.45447
11	C	0.203029	0.028073	0.405359
12	C	0.170386	0.336775	0.381868
13	C	0.138449	0.311252	0.405307
14	C	0.138325	0.313832	0.454197
15	H	0.16996	0.337244	0.346478
16	H	0.113786	0.298753	0.472231
17	O	0.104601	0.047796	0.027843
18	O	0.235352	0.047167	0.478662
19	H	0.080127	0.02739	0.024231
20	H	0.259874	0.02681	0.482212
21	C	0.337156	0.169768	0.278121
22	C	0.02674	0.202045	0.30306
23	C	0.029309	0.201932	0.351949
24	C	0.003721	0.170117	0.375461
25	C	0.312355	0.1375	0.352028
26	C	0.315025	0.136591	0.302903
27	H	0.041843	0.226546	0.284987
28	H	0.00325	0.170607	0.410851
29	C	0.336693	0.171194	0.229207
30	C	0.314152	0.204424	0.204906
31	C	0.310767	0.203787	0.155801
32	C	0.002145	0.171501	0.131867
33	C	0.027758	0.139395	0.15489
34	C	0.02591	0.139001	0.203788
35	H	0.001565	0.171418	0.096473
36	H	0.041297	0.114437	0.221486
37	O	0.293241	0.105105	0.278733
38	O	0.292616	0.235764	0.229552
39	H	0.3136	0.0806	0.275071
40	H	0.313024	0.260228	0.23323
41	C	0.319221	0.321574	0.128842
42	C	0.274388	0.333353	0.127019
43	C	0.241392	0.300951	0.123759
44	C	0.254325	0.256588	0.128742
45	C	0.298666	0.243741	0.133966
46	C	0.331033	0.276756	0.130665
47	C	0.263884	0.044796	0.127242
48	C	0.042468	0.266206	0.130419
49	H	0.230752	0.23299	0.128864
50	C	0.018902	0.021251	0.128814
51	C	0.007148	0.06609	0.130583
52	C	0.039563	0.099099	0.133683
53	C	0.083901	0.086107	0.128594
54	C	0.096735	0.041746	0.123417
55	C	0.063712	0.009427	0.126951
56	C	0.295705	0.076605	0.13046
57	H	0.107506	0.109673	0.12834
58	C	0.074271	0.298003	0.12728
59	H	0.284595	0.107788	0.130916
60	H	0.232706	0.055916	0.126638
61	H	0.105471	0.28691	0.12676
62	H	0.05357	0.23501	0.130935
63	C	0.020146	0.32032	0.378526
64	C	0.008378	0.275548	0.375212
65	C	0.040859	0.242575	0.372544
66	C	0.085129	0.255348	0.378592
67	C	0.097915	0.299624	0.384533
68	C	0.064919	0.332096	0.38184
69	C	0.296935	0.265098	0.373328
70	C	0.075345	0.043545	0.383651
71	H	0.108715	0.231757	0.378644
72	C	0.320458	0.019992	0.378547
73	C	0.275618	0.008186	0.378913
74	C	0.242596	0.040454	0.38287
75	C	0.255554	0.084877	0.378706
76	C	0.299952	0.097935	0.374479
77	C	0.332223	0.064848	0.378239
78	C	0.265048	0.296834	0.376566
79	H	0.231954	0.108442	0.378758
80	C	0.043585	0.075416	0.380493
81	H	0.23383	0.28586	0.375281
82	H	0.285817	0.233975	0.370995
83	H	0.054553	0.106628	0.381913
84	H	0.106465	0.054672	0.385995
85	C	0.169182	0.00375	0.528112
86	C	0.201433	0.314583	0.5535
87	C	0.201193	0.312798	0.602383
88	C	0.169012	0.338319	0.625442
89	C	0.136684	0.029686	0.601557
90	C	0.135975	0.026276	0.552456
91	H	0.226008	0.299236	0.535788
92	H	0.169117	0.338896	0.660839
93	C	0.170608	0.003344	0.979198
94	C	0.20384	0.025443	0.95447
95	C	0.203029	0.028073	0.905359
96	C	0.170386	0.336775	0.881868
97	C	0.138449	0.311252	0.905307
98	C	0.138325	0.313832	0.954197
99	H	0.16996	0.337244	0.846478
100	H	0.113786	0.298753	0.972231
101	O	0.104601	0.047796	0.527842
102	O	0.235352	0.047167	0.978662
103	H	0.080127	0.02739	0.524231
104	H	0.259874	0.02681	0.982212
105	C	0.337156	0.169768	0.77812
106	C	0.02674	0.202045	0.803059
107	C	0.029309	0.201932	0.851949
108	C	0.003721	0.170117	0.875461
109	C	0.312355	0.1375	0.852028
110	C	0.315025	0.136591	0.802904
111	H	0.041843	0.226546	0.784988
112	H	0.00325	0.170607	0.910851
113	C	0.336693	0.171194	0.729207
114	C	0.314152	0.204424	0.704907
115	C	0.310767	0.203787	0.655803
116	C	0.002145	0.171501	0.631866
117	C	0.027758	0.139395	0.654891
118	C	0.02591	0.139001	0.703787
119	H	0.001565	0.171418	0.596473
120	H	0.041297	0.114437	0.721486
121	O	0.293241	0.105105	0.778732
122	O	0.292616	0.235764	0.729552
123	H	0.3136	0.0806	0.775072
124	H	0.313024	0.260228	0.733229
125	C	0.319221	0.321574	0.628842
126	C	0.274388	0.333353	0.627018
127	C	0.241392	0.300951	0.623758
128	C	0.254325	0.256588	0.628742
129	C	0.298666	0.243741	0.633968
130	C	0.331033	0.276756	0.630664
131	C	0.263884	0.044796	0.627242
132	C	0.042468	0.266206	0.630418
133	H	0.230752	0.23299	0.628863
134	C	0.018902	0.021251	0.628815
135	C	0.007148	0.06609	0.630584
136	C	0.039563	0.099099	0.633684
137	C	0.083901	0.086107	0.628593
138	C	0.096735	0.041746	0.623416
139	C	0.063712	0.009427	0.626952
140	C	0.295705	0.076605	0.63046
141	H	0.107506	0.109673	0.628341
142	C	0.074271	0.298003	0.62728
143	H	0.284595	0.107788	0.630916
144	H	0.232706	0.055916	0.626637
145	H	0.105471	0.28691	0.626762
146	H	0.05357	0.23501	0.630937
147	C	0.020146	0.32032	0.878526
148	C	0.008378	0.275548	0.875212
149	C	0.040859	0.242575	0.872544
150	C	0.085129	0.255348	0.878592
151	C	0.097915	0.299624	0.884533
152	C	0.064919	0.332096	0.88184
153	C	0.296935	0.265098	0.873328
154	C	0.075345	0.043545	0.883651
155	H	0.108715	0.231757	0.878644
156	C	0.320458	0.019992	0.878547
157	C	0.275618	0.008186	0.878913
158	C	0.242596	0.040454	0.88287
159	C	0.255554	0.084877	0.878706
160	C	0.299952	0.097935	0.874479
161	C	0.332223	0.064848	0.878239
162	C	0.265048	0.296834	0.876567
163	H	0.231954	0.108442	0.878758
164	C	0.043585	0.075416	0.880493
165	H	0.23383	0.28586	0.875277
166	H	0.285817	0.233975	0.870995
167	H	0.054553	0.106628	0.881913
168	H	0.106465	0.054672	0.885995
169	C	0.169182	0.337084	0.028112
170	C	0.201433	0.647915	0.053499
171	C	0.201193	0.64613	0.102382
172	C	0.169012	0.671653	0.125443
173	C	0.136684	0.363018	0.101558
174	C	0.135975	0.35961	0.052458
175	H	0.226008	0.632568	0.035787
176	H	0.169117	0.672226	0.160837
177	C	0.170608	0.33668	0.479198
178	C	0.20384	0.358776	0.45447
179	C	0.203029	0.361405	0.405359
180	C	0.170386	0.670108	0.381868
181	C	0.138449	0.644585	0.405307
182	C	0.138325	0.647166	0.454197
183	H	0.16996	0.670578	0.346478
184	H	0.113786	0.632086	0.472231
185	O	0.104601	0.381128	0.027843
186	O	0.235352	0.380499	0.478662
187	H	0.080127	0.360724	0.024231
188	H	0.259874	0.360144	0.482212
189	C	0.337156	0.503101	0.278121
190	C	0.02674	0.535379	0.30306
191	C	0.029309	0.535265	0.351949
192	C	0.003721	0.50345	0.375461
193	C	0.312355	0.470833	0.352028
194	C	0.315025	0.469924	0.302903
195	H	0.041843	0.559879	0.284987
196	H	0.00325	0.503942	0.410851
197	C	0.336693	0.504528	0.229207
198	C	0.314152	0.537758	0.204906
199	C	0.310767	0.537119	0.155801
200	C	0.002145	0.504834	0.131867
201	C	0.027758	0.472729	0.15489
202	C	0.02591	0.472335	0.203788
203	H	0.001565	0.50475	0.096473
204	H	0.041297	0.44777	0.221486
205	O	0.293241	0.438438	0.278733
206	O	0.292616	0.569097	0.229552
207	H	0.3136	0.413934	0.275071
208	H	0.313024	0.593561	0.23323
209	C	0.319221	0.654908	0.128842
210	C	0.274388	0.666684	0.127019
211	C	0.241392	0.634285	0.123759
212	C	0.254325	0.589922	0.128742
213	C	0.298666	0.577074	0.133966
214	C	0.331033	0.610088	0.130665
215	C	0.263884	0.378127	0.127242
216	C	0.042468	0.599537	0.130419
217	H	0.230752	0.566324	0.128864
218	C	0.018902	0.354585	0.128814
219	C	0.007148	0.399424	0.130583
220	C	0.039563	0.432432	0.133683
221	C	0.083901	0.419441	0.128594
222	C	0.096735	0.375081	0.123417
223	C	0.063712	0.34276	0.126951
224	C	0.295705	0.409939	0.13046
225	H	0.107506	0.443006	0.12834
226	C	0.074271	0.631336	0.12728
227	H	0.284595	0.441119	0.130916
228	H	0.232706	0.389248	0.126638
229	H	0.105471	0.620245	0.12676
230	H	0.05357	0.568344	0.130935
231	C	0.020146	0.653653	0.378526
232	C	0.008378	0.608879	0.375212
233	C	0.040859	0.575907	0.372544
234	C	0.085129	0.58868	0.378592
235	C	0.097915	0.632956	0.384533
236	C	0.064919	0.665426	0.38184
237	C	0.296935	0.59843	0.373328
238	C	0.075345	0.376876	0.383651
239	H	0.108715	0.565089	0.378644
240	C	0.320458	0.353324	0.378547
241	C	0.275618	0.341519	0.378913
242	C	0.242596	0.373787	0.38287
243	C	0.255554	0.418209	0.378706
244	C	0.299952	0.431269	0.374479
245	C	0.332223	0.39818	0.378239
246	C	0.265048	0.630167	0.376566
247	H	0.231954	0.441774	0.378758
248	C	0.043585	0.40875	0.380493
249	H	0.23383	0.619192	0.375281
250	H	0.285817	0.567308	0.370995
251	H	0.054553	0.439962	0.381913
252	H	0.106465	0.388007	0.385995
253	C	0.169182	0.337084	0.528112
254	C	0.201433	0.647915	0.5535
255	C	0.201193	0.64613	0.602383
256	C	0.169012	0.671653	0.625442
257	C	0.136684	0.363018	0.601557
258	C	0.135975	0.35961	0.552456
259	H	0.226008	0.632568	0.535788
260	H	0.169117	0.672226	0.660839
261	C	0.170608	0.33668	0.979198
262	C	0.20384	0.358776	0.95447
263	C	0.203029	0.361405	0.905359
264	C	0.170386	0.670108	0.881868
265	C	0.138449	0.644585	0.905307
266	C	0.138325	0.647166	0.954197
267	H	0.16996	0.670578	0.846478
268	H	0.113786	0.632086	0.972231
269	O	0.104601	0.381128	0.527842
270	O	0.235352	0.380499	0.978662
271	H	0.080127	0.360724	0.524231
272	H	0.259874	0.360144	0.982212
273	C	0.337156	0.503101	0.77812
274	C	0.02674	0.535379	0.803059
275	C	0.029309	0.535265	0.851949
276	C	0.003721	0.50345	0.875461
277	C	0.312355	0.470833	0.852028
278	C	0.315025	0.469924	0.802904
279	H	0.041843	0.559879	0.784988
280	H	0.00325	0.503942	0.910851
281	C	0.336693	0.504528	0.729207
282	C	0.314152	0.537758	0.704907
283	C	0.310767	0.537119	0.655803
284	C	0.002145	0.504834	0.631866
285	C	0.027758	0.472729	0.654891
286	C	0.02591	0.472335	0.703787
287	H	0.001565	0.50475	0.596473
288	H	0.041297	0.44777	0.721486
289	O	0.293241	0.438438	0.778732
290	O	0.292616	0.569097	0.729552
291	H	0.3136	0.413934	0.775072
292	H	0.313024	0.593561	0.733229
293	C	0.319221	0.654908	0.628842
294	C	0.274388	0.666684	0.627018
295	C	0.241392	0.634285	0.623758
296	C	0.254325	0.589922	0.628742
297	C	0.298666	0.577074	0.633968
298	C	0.331033	0.610088	0.630664
299	C	0.263884	0.378127	0.627242
300	C	0.042468	0.599537	0.630418
301	H	0.230752	0.566324	0.628863
302	C	0.018902	0.354585	0.628815
303	C	0.007148	0.399424	0.630584
304	C	0.039563	0.432432	0.633684
305	C	0.083901	0.419441	0.628593
306	C	0.096735	0.375081	0.623416
307	C	0.063712	0.34276	0.626952
308	C	0.295705	0.409939	0.63046
309	H	0.107506	0.443006	0.628341
310	C	0.074271	0.631336	0.62728
311	H	0.284595	0.441119	0.630916
312	H	0.232706	0.389248	0.626637
313	H	0.105471	0.620245	0.626762
314	H	0.05357	0.568344	0.630937
315	C	0.020146	0.653653	0.878526
316	C	0.008378	0.608879	0.875212
317	C	0.040859	0.575907	0.872544
318	C	0.085129	0.58868	0.878592
319	C	0.097915	0.632956	0.884533
320	C	0.064919	0.665426	0.88184
321	C	0.296935	0.59843	0.873328
322	C	0.075345	0.376876	0.883651
323	H	0.108715	0.565089	0.878644
324	C	0.320458	0.353324	0.878547
325	C	0.275618	0.341519	0.878913
326	C	0.242596	0.373787	0.88287
327	C	0.255554	0.418209	0.878706
328	C	0.299952	0.431269	0.874479
329	C	0.332223	0.39818	0.878239
330	C	0.265048	0.630167	0.876567
331	H	0.231954	0.441774	0.878758
332	C	0.043585	0.40875	0.880493
333	H	0.23383	0.619192	0.875277
334	H	0.285817	0.567308	0.870995
335	H	0.054553	0.439962	0.881913
336	H	0.106465	0.388007	0.885995
337	C	0.169182	0.670415	0.028112
338	C	0.201433	0.981249	0.053499
339	C	0.201193	0.979463	0.102382
340	C	0.169012	0.004986	0.125443
341	C	0.136684	0.696352	0.101558
342	C	0.135975	0.69294	0.052458
343	H	0.226008	0.965902	0.035787
344	H	0.169117	0.005562	0.160837
345	C	0.170608	0.670014	0.479198
346	C	0.20384	0.692109	0.45447
347	C	0.203029	0.694739	0.405359
348	C	0.170386	0.003442	0.381868
349	C	0.138449	0.977919	0.405307
350	C	0.138325	0.980496	0.454197
351	H	0.16996	0.003912	0.346478
352	H	0.113786	0.96542	0.472231
353	O	0.104601	0.714462	0.027843
354	O	0.235352	0.713833	0.478662
355	H	0.080127	0.694055	0.024231
356	H	0.259874	0.693475	0.482212
357	C	0.337156	0.836435	0.278121
358	C	0.02674	0.868709	0.30306
359	C	0.029309	0.868599	0.351949
360	C	0.003721	0.836783	0.375461
361	C	0.312355	0.804167	0.352028
362	C	0.315025	0.803257	0.302903
363	H	0.041843	0.893213	0.284987
364	H	0.00325	0.837272	0.410851
365	C	0.336693	0.837859	0.229207
366	C	0.314152	0.871088	0.204906
367	C	0.310767	0.870453	0.155801
368	C	0.002145	0.838168	0.131867
369	C	0.027758	0.80606	0.15489
370	C	0.02591	0.805665	0.203788
371	H	0.001565	0.838084	0.096473
372	H	0.041297	0.781103	0.221486
373	O	0.293241	0.771771	0.278733
374	O	0.292616	0.902431	0.229552
375	H	0.3136	0.747265	0.275071
376	H	0.313024	0.926895	0.23323
377	C	0.319221	0.988238	0.128842
378	C	0.274388	1.8e-05	0.127019
379	C	0.241392	0.967616	0.123759
380	C	0.254325	0.923256	0.128742
381	C	0.298666	0.910408	0.133966
382	C	0.331033	0.943422	0.130665
383	C	0.263884	0.711461	0.127242
384	C	0.042468	0.932871	0.130419
385	H	0.230752	0.899655	0.128864
386	C	0.018902	0.687916	0.128814
387	C	0.007148	0.732755	0.130583
388	C	0.039563	0.765766	0.133683
389	C	0.083901	0.752771	0.128594
390	C	0.096735	0.708411	0.123417
391	C	0.063712	0.676094	0.126951
392	C	0.295705	0.74327	0.13046
393	H	0.107506	0.77634	0.12834
394	C	0.074271	0.96467	0.12728
395	H	0.284595	0.774453	0.130916
396	H	0.232706	0.722582	0.126638
397	H	0.105471	0.953575	0.12676
398	H	0.05357	0.901675	0.130935
399	C	0.020146	0.986987	0.378526
400	C	0.008378	0.942213	0.375212
401	C	0.040859	0.909241	0.372544
402	C	0.085129	0.922014	0.378592
403	C	0.097915	0.96629	0.384533
404	C	0.064919	0.99876	0.38184
405	C	0.296935	0.931763	0.373328
406	C	0.075345	0.71021	0.383651
407	H	0.108715	0.898423	0.378644
408	C	0.320458	0.686658	0.378547
409	C	0.275618	0.674853	0.378913
410	C	0.242596	0.707121	0.38287
411	C	0.255554	0.751543	0.378706
412	C	0.299952	0.764599	0.374479
413	C	0.332223	0.731513	0.378239
414	C	0.265048	0.9635	0.376566
415	H	0.231954	0.775108	0.378758
416	C	0.043585	0.742081	0.380493
417	H	0.23383	0.952526	0.375281
418	H	0.285817	0.900642	0.370995
419	H	0.054553	0.773293	0.381913
420	H	0.106465	0.721337	0.385995
421	C	0.169182	0.670415	0.528112
422	C	0.201433	0.981249	0.5535
423	C	0.201193	0.979463	0.602383
424	C	0.169012	0.004986	0.625442
425	C	0.136684	0.696352	0.601557
426	C	0.135975	0.69294	0.552456
427	H	0.226008	0.965902	0.535788
428	H	0.169117	0.005562	0.660839
429	C	0.170608	0.670014	0.979198
430	C	0.20384	0.692109	0.95447
431	C	0.203029	0.694739	0.905359
432	C	0.170386	0.003442	0.881868
433	C	0.138449	0.977919	0.905307
434	C	0.138325	0.980496	0.954197
435	H	0.16996	0.003912	0.846478
436	H	0.113786	0.96542	0.972231
437	O	0.104601	0.714462	0.527842
438	O	0.235352	0.713833	0.978662
439	H	0.080127	0.694055	0.524231
440	H	0.259874	0.693475	0.982212
441	C	0.337156	0.836435	0.77812
442	C	0.02674	0.868709	0.803059
443	C	0.029309	0.868599	0.851949
444	C	0.003721	0.836783	0.875461
445	C	0.312355	0.804167	0.852028
446	C	0.315025	0.803257	0.802904
447	H	0.041843	0.893213	0.784988
448	H	0.00325	0.837272	0.910851
449	C	0.336693	0.837859	0.729207
450	C	0.314152	0.871088	0.704907
451	C	0.310767	0.870453	0.655803
452	C	0.002145	0.838168	0.631866
453	C	0.027758	0.80606	0.654891
454	C	0.02591	0.805665	0.703787
455	H	0.001565	0.838084	0.596473
456	H	0.041297	0.781103	0.721486
457	O	0.293241	0.771771	0.778732
458	O	0.292616	0.902431	0.729552
459	H	0.3136	0.747265	0.775072
460	H	0.313024	0.926895	0.733229
461	C	0.319221	0.988238	0.628842
462	C	0.274388	1.8e-05	0.627018
463	C	0.241392	0.967616	0.623758
464	C	0.254325	0.923256	0.628742
465	C	0.298666	0.910408	0.633968
466	C	0.331033	0.943422	0.630664
467	C	0.263884	0.711461	0.627242
468	C	0.042468	0.932871	0.630418
469	H	0.230752	0.899655	0.628863
470	C	0.018902	0.687916	0.628815
471	C	0.007148	0.732755	0.630584
472	C	0.039563	0.765766	0.633684
473	C	0.083901	0.752771	0.628593
474	C	0.096735	0.708411	0.623416
475	C	0.063712	0.676094	0.626952
476	C	0.295705	0.74327	0.63046
477	H	0.107506	0.77634	0.628341
478	C	0.074271	0.96467	0.62728
479	H	0.284595	0.774453	0.630916
480	H	0.232706	0.722582	0.626637
481	H	0.105471	0.953575	0.626762
482	H	0.05357	0.901675	0.630937
483	C	0.020146	0.986987	0.878526
484	C	0.008378	0.942213	0.875212
485	C	0.040859	0.909241	0.872544
486	C	0.085129	0.922014	0.878592
487	C	0.097915	0.96629	0.884533
488	C	0.064919	0.99876	0.88184
489	C	0.296935	0.931763	0.873328
490	C	0.075345	0.71021	0.883651
491	H	0.108715	0.898423	0.878644
492	C	0.320458	0.686658	0.878547
493	C	0.275618	0.674853	0.878913
494	C	0.242596	0.707121	0.88287
495	C	0.255554	0.751543	0.878706
496	C	0.299952	0.764599	0.874479
497	C	0.332223	0.731513	0.878239
498	C	0.265048	0.9635	0.876567
499	H	0.231954	0.775108	0.878758
500	C	0.043585	0.742081	0.880493
501	H	0.23383	0.952526	0.875277
502	H	0.285817	0.900642	0.870995
503	H	0.054553	0.773293	0.881913
504	H	0.106465	0.721337	0.885995
505	C	0.502514	0.00375	0.028112
506	C	0.534766	0.314583	0.053499
507	C	0.534525	0.312798	0.102382
508	C	0.502345	0.338319	0.125443
509	C	0.470018	0.029686	0.101558
510	C	0.469308	0.026276	0.052458
511	H	0.559341	0.299236	0.035787
512	H	0.502449	0.338896	0.160837
513	C	0.503942	0.003344	0.479198
514	C	0.537174	0.025443	0.45447
515	C	0.536363	0.028073	0.405359
516	C	0.50372	0.336775	0.381868
517	C	0.471781	0.311252	0.405307
518	C	0.471657	0.313832	0.454197
519	H	0.503293	0.337244	0.346478
520	H	0.447118	0.298753	0.472231
521	O	0.437932	0.047796	0.027843
522	O	0.568683	0.047167	0.478662
523	H	0.413462	0.02739	0.024231
524	H	0.593206	0.02681	0.482212
525	C	0.67049	0.169768	0.278121
526	C	0.360072	0.202045	0.30306
527	C	0.362643	0.201932	0.351949
528	C	0.337055	0.170117	0.375461
529	C	0.64569	0.1375	0.352028
530	C	0.648358	0.136591	0.302903
531	H	0.375175	0.226546	0.284987
532	H	0.336586	0.170607	0.410851
533	C	0.670027	0.171194	0.229207
534	C	0.647485	0.204424	0.204906
535	C	0.6441	0.203787	0.155801
536	C	0.335478	0.171501	0.131867
537	C	0.361089	0.139395	0.15489
538	C	0.359241	0.139001	0.203788
539	H	0.334901	0.171418	0.096473
540	H	0.374631	0.114437	0.221486
541	O	0.626573	0.105105	0.278733
542	O	0.62595	0.235764	0.229552
543	H	0.646934	0.0806	0.275071
544	H	0.646358	0.260228	0.23323
545	C	0.652555	0.321574	0.128842
546	C	0.607723	0.333353	0.127019
547	C	0.574724	0.300951	0.123759
548	C	0.587657	0.256588	0.128742
549	C	0.631998	0.243741	0.133966
550	C	0.664367	0.276756	0.130665
551	C	0.597217	0.044796	0.127242
552	C	0.375801	0.266206	0.130419
553	H	0.564086	0.23299	0.128864
554	C	0.352236	0.021251	0.128814
555	C	0.340479	0.06609	0.130583
556	C	0.372898	0.099099	0.133683
557	C	0.417235	0.086107	0.128594
558	C	0.430067	0.041746	0.123417
559	C	0.397046	0.009427	0.126951
560	C	0.629039	0.076605	0.13046
561	H	0.440839	0.109673	0.12834
562	C	0.407603	0.298003	0.12728
563	H	0.617928	0.107788	0.130916
564	H	0.566038	0.055916	0.126638
565	H	0.438802	0.28691	0.12676
566	H	0.386902	0.23501	0.130935
567	C	0.353477	0.32032	0.378526
568	C	0.341711	0.275548	0.375212
569	C	0.374191	0.242575	0.372544
570	C	0.418463	0.255348	0.378592
571	C	0.431249	0.299624	0.384533
572	C	0.398251	0.332096	0.38184
573	C	0.630268	0.265098	0.373328
574	C	0.408678	0.043545	0.383651
575	H	0.442048	0.231757	0.378644
576	C	0.65379	0.019992	0.378547
577	C	0.608951	0.008186	0.378913
578	C	0.57593	0.040454	0.38287
579	C	0.588886	0.084877	0.378706
580	C	0.633285	0.097935	0.374479
581	C	0.665553	0.064848	0.378239
582	C	0.598381	0.296834	0.376566
583	H	0.565288	0.108442	0.378758
584	C	0.376918	0.075416	0.380493
585	H	0.567162	0.28586	0.375281
586	H	0.61915	0.233975	0.370995
587	H	0.387886	0.106628	0.381913
588	H	0.4398	0.054672	0.385995
589	C	0.502514	0.00375	0.528112
590	C	0.534766	0.314583	0.5535
591	C	0.534525	0.312798	0.602383
592	C	0.502345	0.338319	0.625442
593	C	0.470018	0.029686	0.601557
594	C	0.469308	0.026276	0.552456
595	H	0.559341	0.299236	0.535788
596	H	0.502449	0.338896	0.660839
597	C	0.503942	0.003344	0.979198
598	C	0.537174	0.025443	0.95447
599	C	0.536363	0.028073	0.905359
600	C	0.50372	0.336775	0.881868
601	C	0.471781	0.311252	0.905307
602	C	0.471657	0.313832	0.954197
603	H	0.503293	0.337244	0.846478
604	H	0.447118	0.298753	0.972231
605	O	0.437932	0.047796	0.527842
606	O	0.568683	0.047167	0.978662
607	H	0.413462	0.02739	0.524231
608	H	0.593206	0.02681	0.982212
609	C	0.67049	0.169768	0.77812
610	C	0.360072	0.202045	0.803059
611	C	0.362643	0.201932	0.851949
612	C	0.337055	0.170117	0.875461
613	C	0.64569	0.1375	0.852028
614	C	0.648358	0.136591	0.802904
615	H	0.375175	0.226546	0.784988
616	H	0.336586	0.170607	0.910851
617	C	0.670027	0.171194	0.729207
618	C	0.647485	0.204424	0.704907
619	C	0.6441	0.203787	0.655803
620	C	0.335478	0.171501	0.631866
621	C	0.361089	0.139395	0.654891
622	C	0.359241	0.139001	0.703787
623	H	0.334901	0.171418	0.596473
624	H	0.374631	0.114437	0.721486
625	O	0.626573	0.105105	0.778732
626	O	0.62595	0.235764	0.729552
627	H	0.646934	0.0806	0.775072
628	H	0.646358	0.260228	0.733229
629	C	0.652555	0.321574	0.628842
630	C	0.607723	0.333353	0.627018
631	C	0.574724	0.300951	0.623758
632	C	0.587657	0.256588	0.628742
633	C	0.631998	0.243741	0.633968
634	C	0.664367	0.276756	0.630664
635	C	0.597217	0.044796	0.627242
636	C	0.375801	0.266206	0.630418
637	H	0.564086	0.23299	0.628863
638	C	0.352236	0.021251	0.628815
639	C	0.340479	0.06609	0.630584
640	C	0.372898	0.099099	0.633684
641	C	0.417235	0.086107	0.628593
642	C	0.430067	0.041746	0.623416
643	C	0.397046	0.009427	0.626952
644	C	0.629039	0.076605	0.63046
645	H	0.440839	0.109673	0.628341
646	C	0.407603	0.298003	0.62728
647	H	0.617928	0.107788	0.630916
648	H	0.566038	0.055916	0.626637
649	H	0.438802	0.28691	0.626762
650	H	0.386902	0.23501	0.630937
651	C	0.353477	0.32032	0.878526
652	C	0.341711	0.275548	0.875212
653	C	0.374191	0.242575	0.872544
654	C	0.418463	0.255348	0.878592
655	C	0.431249	0.299624	0.884533
656	C	0.398251	0.332096	0.88184
657	C	0.630268	0.265098	0.873328
658	C	0.408678	0.043545	0.883651
659	H	0.442048	0.231757	0.878644
660	C	0.65379	0.019992	0.878547
661	C	0.608951	0.008186	0.878913
662	C	0.57593	0.040454	0.88287
663	C	0.588886	0.084877	0.878706
664	C	0.633285	0.097935	0.874479
665	C	0.665553	0.064848	0.878239
666	C	0.598381	0.296834	0.876567
667	H	0.565288	0.108442	0.878758
668	C	0.376918	0.075416	0.880493
669	H	0.567162	0.28586	0.875277
670	H	0.61915	0.233975	0.870995
671	H	0.387886	0.106628	0.881913
672	H	0.4398	0.054672	0.885995
673	C	0.502514	0.337084	0.028112
674	C	0.534766	0.647915	0.053499
675	C	0.534525	0.64613	0.102382
676	C	0.502345	0.671653	0.125443
677	C	0.470018	0.363018	0.101558
678	C	0.469308	0.35961	0.052458
679	H	0.559341	0.632568	0.035787
680	H	0.502449	0.672226	0.160837
681	C	0.503942	0.33668	0.479198
682	C	0.537174	0.358776	0.45447
683	C	0.536363	0.361405	0.405359
684	C	0.50372	0.670108	0.381868
685	C	0.471781	0.644585	0.405307
686	C	0.471657	0.647166	0.454197
687	H	0.503293	0.670578	0.346478
688	H	0.447118	0.632086	0.472231
689	O	0.437932	0.381128	0.027843
690	O	0.568683	0.380499	0.478662
691	H	0.413462	0.360724	0.024231
692	H	0.593206	0.360144	0.482212
693	C	0.67049	0.503101	0.278121
694	C	0.360072	0.535379	0.30306
695	C	0.362643	0.535265	0.351949
696	C	0.337055	0.50345	0.375461
697	C	0.64569	0.470833	0.352028
698	C	0.648358	0.469924	0.302903
699	H	0.375175	0.559879	0.284987
700	H	0.336586	0.503942	0.410851
701	C	0.670027	0.504528	0.229207
702	C	0.647485	0.537758	0.204906
703	C	0.6441	0.537119	0.155801
704	C	0.335478	0.504834	0.131867
705	C	0.361089	0.472729	0.15489
706	C	0.359241	0.472335	0.203788
707	H	0.334901	0.50475	0.096473
708	H	0.374631	0.44777	0.221486
709	O	0.626573	0.438438	0.278733
710	O	0.62595	0.569097	0.229552
711	H	0.646934	0.413934	0.275071
712	H	0.646358	0.593561	0.23323
713	C	0.652555	0.654908	0.128842
714	C	0.607723	0.666684	0.127019
715	C	0.574724	0.634285	0.123759
716	C	0.587657	0.589922	0.128742
717	C	0.631998	0.577074	0.133966
718	C	0.664367	0.610088	0.130665
719	C	0.597217	0.378127	0.127242
720	C	0.375801	0.599537	0.130419
721	H	0.564086	0.566324	0.128864
722	C	0.352236	0.354585	0.128814
723	C	0.340479	0.399424	0.130583
724	C	0.372898	0.432432	0.133683
725	C	0.417235	0.419441	0.128594
726	C	0.430067	0.375081	0.123417
727	C	0.397046	0.34276	0.126951
728	C	0.629039	0.409939	0.13046
729	H	0.440839	0.443006	0.12834
730	C	0.407603	0.631336	0.12728
731	H	0.617928	0.441119	0.130916
732	H	0.566038	0.389248	0.126638
733	H	0.438802	0.620245	0.12676
734	H	0.386902	0.568344	0.130935
735	C	0.353477	0.653653	0.378526
736	C	0.341711	0.608879	0.375212
737	C	0.374191	0.575907	0.372544
738	C	0.418463	0.58868	0.378592
739	C	0.431249	0.632956	0.384533
740	C	0.398251	0.665426	0.38184
741	C	0.630268	0.59843	0.373328
742	C	0.408678	0.376876	0.383651
743	H	0.442048	0.565089	0.378644
744	C	0.65379	0.353324	0.378547
745	C	0.608951	0.341519	0.378913
746	C	0.57593	0.373787	0.38287
747	C	0.588886	0.418209	0.378706
748	C	0.633285	0.431269	0.374479
749	C	0.665553	0.39818	0.378239
750	C	0.598381	0.630167	0.376566
751	H	0.565288	0.441774	0.378758
752	C	0.376918	0.40875	0.380493
753	H	0.567162	0.619192	0.375281
754	H	0.61915	0.567308	0.370995
755	H	0.387886	0.439962	0.381913
756	H	0.4398	0.388007	0.385995
757	C	0.502514	0.337084	0.528112
758	C	0.534766	0.647915	0.5535
759	C	0.534525	0.64613	0.602383
760	C	0.502345	0.671653	0.625442
761	C	0.470018	0.363018	0.601557
762	C	0.469308	0.35961	0.552456
763	H	0.559341	0.632568	0.535788
764	H	0.502449	0.672226	0.660839
765	C	0.503942	0.33668	0.979198
766	C	0.537174	0.358776	0.95447
767	C	0.536363	0.361405	0.905359
768	C	0.50372	0.670108	0.881868
769	C	0.471781	0.644585	0.905307
770	C	0.471657	0.647166	0.954197
771	H	0.503293	0.670578	0.846478
772	H	0.447118	0.632086	0.972231
773	O	0.437932	0.381128	0.527842
774	O	0.568683	0.380499	0.978662
775	H	0.413462	0.360724	0.524231
776	H	0.593206	0.360144	0.982212
777	C	0.67049	0.503101	0.77812
778	C	0.360072	0.535379	0.803059
779	C	0.362643	0.535265	0.851949
780	C	0.337055	0.50345	0.875461
781	C	0.64569	0.470833	0.852028
782	C	0.648358	0.469924	0.802904
783	H	0.375175	0.559879	0.784988
784	H	0.336586	0.503942	0.910851
785	C	0.670027	0.504528	0.729207
786	C	0.647485	0.537758	0.704907
787	C	0.6441	0.537119	0.655803
788	C	0.335478	0.504834	0.631866
789	C	0.361089	0.472729	0.654891
790	C	0.359241	0.472335	0.703787
791	H	0.334901	0.50475	0.596473
792	H	0.374631	0.44777	0.721486
793	O	0.626573	0.438438	0.778732
794	O	0.62595	0.569097	0.729552
795	H	0.646934	0.413934	0.775072
796	H	0.646358	0.593561	0.733229
797	C	0.652555	0.654908	0.628842
798	C	0.607723	0.666684	0.627018
799	C	0.574724	0.634285	0.623758
800	C	0.587657	0.589922	0.628742
801	C	0.631998	0.577074	0.633968
802	C	0.664367	0.610088	0.630664
803	C	0.597217	0.378127	0.627242
804	C	0.375801	0.599537	0.630418
805	H	0.564086	0.566324	0.628863
806	C	0.352236	0.354585	0.628815
807	C	0.340479	0.399424	0.630584
808	C	0.372898	0.432432	0.633684
809	C	0.417235	0.419441	0.628593
810	C	0.430067	0.375081	0.623416
811	C	0.397046	0.34276	0.626952
812	C	0.629039	0.409939	0.63046
813	H	0.440839	0.443006	0.628341
814	C	0.407603	0.631336	0.62728
815	H	0.617928	0.441119	0.630916
816	H	0.566038	0.389248	0.626637
817	H	0.438802	0.620245	0.626762
818	H	0.386902	0.568344	0.630937
819	C	0.353477	0.653653	0.878526
820	C	0.341711	0.608879	0.875212
821	C	0.374191	0.575907	0.872544
822	C	0.418463	0.58868	0.878592
823	C	0.431249	0.632956	0.884533
824	C	0.398251	0.665426	0.88184
825	C	0.630268	0.59843	0.873328
826	C	0.408678	0.376876	0.883651
827	H	0.442048	0.565089	0.878644
828	C	0.65379	0.353324	0.878547
829	C	0.608951	0.341519	0.878913
830	C	0.57593	0.373787	0.88287
831	C	0.588886	0.418209	0.878706
832	C	0.633285	0.431269	0.874479
833	C	0.665553	0.39818	0.878239
834	C	0.598381	0.630167	0.876567
835	H	0.565288	0.441774	0.878758
836	C	0.376918	0.40875	0.880493
837	H	0.567162	0.619192	0.875277
838	H	0.61915	0.567308	0.870995
839	H	0.387886	0.439962	0.881913
840	H	0.4398	0.388007	0.885995
841	C	0.502514	0.670415	0.028112
842	C	0.534766	0.981249	0.053499
843	C	0.534525	0.979463	0.102382
844	C	0.502345	0.004986	0.125443
845	C	0.470018	0.696352	0.101558
846	C	0.469308	0.69294	0.052458
847	H	0.559341	0.965902	0.035787
848	H	0.502449	0.005562	0.160837
849	C	0.503942	0.670014	0.479198
850	C	0.537174	0.692109	0.45447
851	C	0.536363	0.694739	0.405359
852	C	0.50372	0.003442	0.381868
853	C	0.471781	0.977919	0.405307
854	C	0.471657	0.980496	0.454197
855	H	0.503293	0.003912	0.346478
856	H	0.447118	0.96542	0.472231
857	O	0.437932	0.714462	0.027843
858	O	0.568683	0.713833	0.478662
859	H	0.413462	0.694055	0.024231
860	H	0.593206	0.693475	0.482212
861	C	0.67049	0.836435	0.278121
862	C	0.360072	0.868709	0.30306
863	C	0.362643	0.868599	0.351949
864	C	0.337055	0.836783	0.375461
865	C	0.64569	0.804167	0.352028
866	C	0.648358	0.803257	0.302903
867	H	0.375175	0.893213	0.284987
868	H	0.336586	0.837272	0.410851
869	C	0.670027	0.837859	0.229207
870	C	0.647485	0.871088	0.204906
871	C	0.6441	0.870453	0.155801
872	C	0.335478	0.838168	0.131867
873	C	0.361089	0.80606	0.15489
874	C	0.359241	0.805665	0.203788
875	H	0.334901	0.838084	0.096473
876	H	0.374631	0.781103	0.221486
877	O	0.626573	0.771771	0.278733
878	O	0.62595	0.902431	0.229552
879	H	0.646934	0.747265	0.275071
880	H	0.646358	0.926895	0.23323
881	C	0.652555	0.988238	0.128842
882	C	0.607723	1.8e-05	0.127019
883	C	0.574724	0.967616	0.123759
884	C	0.587657	0.923256	0.128742
885	C	0.631998	0.910408	0.133966
886	C	0.664367	0.943422	0.130665
887	C	0.597217	0.711461	0.127242
888	C	0.375801	0.932871	0.130419
889	H	0.564086	0.899655	0.128864
890	C	0.352236	0.687916	0.128814
891	C	0.340479	0.732755	0.130583
892	C	0.372898	0.765766	0.133683
893	C	0.417235	0.752771	0.128594
894	C	0.430067	0.708411	0.123417
895	C	0.397046	0.676094	0.126951
896	C	0.629039	0.74327	0.13046
897	H	0.440839	0.77634	0.12834
898	C	0.407603	0.96467	0.12728
899	H	0.617928	0.774453	0.130916
900	H	0.566038	0.722582	0.126638
901	H	0.438802	0.953575	0.12676
902	H	0.386902	0.901675	0.130935
903	C	0.353477	0.986987	0.378526
904	C	0.341711	0.942213	0.375212
905	C	0.374191	0.909241	0.372544
906	C	0.418463	0.922014	0.378592
907	C	0.431249	0.96629	0.384533
908	C	0.398251	0.99876	0.38184
909	C	0.630268	0.931763	0.373328
910	C	0.408678	0.71021	0.383651
911	H	0.442048	0.898423	0.378644
912	C	0.65379	0.686658	0.378547
913	C	0.608951	0.674853	0.378913
914	C	0.57593	0.707121	0.38287
915	C	0.588886	0.751543	0.378706
916	C	0.633285	0.764599	0.374479
917	C	0.665553	0.731513	0.378239
918	C	0.598381	0.9635	0.376566
919	H	0.565288	0.775108	0.378758
920	C	0.376918	0.742081	0.380493
921	H	0.567162	0.952526	0.375281
922	H	0.61915	0.900642	0.370995
923	H	0.387886	0.773293	0.381913
924	H	0.4398	0.721337	0.385995
925	C	0.502514	0.670415	0.528112
926	C	0.534766	0.981249	0.5535
927	C	0.534525	0.979463	0.602383
928	C	0.502345	0.004986	0.625442
929	C	0.470018	0.696352	0.601557
930	C	0.469308	0.69294	0.552456
931	H	0.559341	0.965902	0.535788
932	H	0.502449	0.005562	0.660839
933	C	0.503942	0.670014	0.979198
934	C	0.537174	0.692109	0.95447
935	C	0.536363	0.694739	0.905359
936	C	0.50372	0.003442	0.881868
937	C	0.471781	0.977919	0.905307
938	C	0.471657	0.980496	0.954197
939	H	0.503293	0.003912	0.846478
940	H	0.447118	0.96542	0.972231
941	O	0.437932	0.714462	0.527842
942	O	0.568683	0.713833	0.978662
943	H	0.413462	0.694055	0.524231
944	H	0.593206	0.693475	0.982212
945	C	0.67049	0.836435	0.77812
946	C	0.360072	0.868709	0.803059
947	C	0.362643	0.868599	0.851949
948	C	0.337055	0.836783	0.875461
949	C	0.64569	0.804167	0.852028
950	C	0.648358	0.803257	0.802904
951	H	0.375175	0.893213	0.784988
952	H	0.336586	0.837272	0.910851
953	C	0.670027	0.837859	0.729207
954	C	0.647485	0.871088	0.704907
955	C	0.6441	0.870453	0.655803
956	C	0.335478	0.838168	0.631866
957	C	0.361089	0.80606	0.654891
958	C	0.359241	0.805665	0.703787
959	H	0.334901	0.838084	0.596473
960	H	0.374631	0.781103	0.721486
961	O	0.626573	0.771771	0.778732
962	O	0.62595	0.902431	0.729552
963	H	0.646934	0.747265	0.775072
964	H	0.646358	0.926895	0.733229
965	C	0.652555	0.988238	0.628842
966	C	0.607723	1.8e-05	0.627018
967	C	0.574724	0.967616	0.623758
968	C	0.587657	0.923256	0.628742
969	C	0.631998	0.910408	0.633968
970	C	0.664367	0.943422	0.630664
971	C	0.597217	0.711461	0.627242
972	C	0.375801	0.932871	0.630418
973	H	0.564086	0.899655	0.628863
974	C	0.352236	0.687916	0.628815
975	C	0.340479	0.732755	0.630584
976	C	0.372898	0.765766	0.633684
977	C	0.417235	0.752771	0.628593
978	C	0.430067	0.708411	0.623416
979	C	0.397046	0.676094	0.626952
980	C	0.629039	0.74327	0.63046
981	H	0.440839	0.77634	0.628341
982	C	0.407603	0.96467	0.62728
983	H	0.617928	0.774453	0.630916
984	H	0.566038	0.722582	0.626637
985	H	0.438802	0.953575	0.626762
986	H	0.386902	0.901675	0.630937
987	C	0.353477	0.986987	0.878526
988	C	0.341711	0.942213	0.875212
989	C	0.374191	0.909241	0.872544
990	C	0.418463	0.922014	0.878592
991	C	0.431249	0.96629	0.884533
992	C	0.398251	0.99876	0.88184
993	C	0.630268	0.931763	0.873328
994	C	0.408678	0.71021	0.883651
995	H	0.442048	0.898423	0.878644
996	C	0.65379	0.686658	0.878547
997	C	0.608951	0.674853	0.878913
998	C	0.57593	0.707121	0.88287
999	C	0.588886	0.751543	0.878706
1000	C	0.633285	0.764599	0.874479
1001	C	0.665553	0.731513	0.878239
1002	C	0.598381	0.9635	0.876567
1003	H	0.565288	0.775108	0.878758
1004	C	0.376918	0.742081	0.880493
1005	H	0.567162	0.952526	0.875277
1006	H	0.61915	0.900642	0.870995
1007	H	0.387886	0.773293	0.881913
1008	H	0.4398	0.721337	0.885995
1009	C	0.835848	0.00375	0.028112
1010	C	0.8681	0.314583	0.053499
1011	C	0.867859	0.312798	0.102382
1012	C	0.835679	0.338319	0.125443
1013	C	0.803349	0.029686	0.101558
1014	C	0.802642	0.026276	0.052458
1015	H	0.892675	0.299236	0.035787
1016	H	0.835783	0.338896	0.160837
1017	C	0.837275	0.003344	0.479198
1018	C	0.870505	0.025443	0.45447
1019	C	0.869694	0.028073	0.405359
1020	C	0.837051	0.336775	0.381868
1021	C	0.805115	0.311252	0.405307
1022	C	0.804991	0.313832	0.454197
1023	H	0.836627	0.337244	0.346478
1024	H	0.780452	0.298753	0.472231
1025	O	0.771266	0.047796	0.027843
1026	O	0.902017	0.047167	0.478662
1027	H	0.746792	0.02739	0.024231
1028	H	0.92654	0.02681	0.482212
1029	C	0.003825	0.169768	0.278121
1030	C	0.693406	0.202045	0.30306
1031	C	0.695974	0.201932	0.351949
1032	C	0.670389	0.170117	0.375461
1033	C	0.97902	0.1375	0.352028
1034	C	0.981692	0.136591	0.302903
1035	H	0.708509	0.226546	0.284987
1036	H	0.669916	0.170607	0.410851
1037	C	0.003357	0.171194	0.229207
1038	C	0.980819	0.204424	0.204906
1039	C	0.977433	0.203787	0.155801
1040	C	0.668812	0.171501	0.131867
1041	C	0.694423	0.139395	0.15489
1042	C	0.692575	0.139001	0.203788
1043	H	0.668232	0.171418	0.096473
1044	H	0.707962	0.114437	0.221486
1045	O	0.959906	0.105105	0.278733
1046	O	0.959284	0.235764	0.229552
1047	H	0.980265	0.0806	0.275071
1048	H	0.979688	0.260228	0.23323
1049	C	0.985886	0.321574	0.128842
1050	C	0.941053	0.333353	0.127019
1051	C	0.908058	0.300951	0.123759
1052	C	0.920991	0.256588	0.128742
1053	C	0.965332	0.243741	0.133966
1054	C	0.997701	0.276756	0.130665
1055	C	0.930551	0.044796	0.127242
1056	C	0.709135	0.266206	0.130419
1057	H	0.897416	0.23299	0.128864
1058	C	0.68557	0.021251	0.128814
1059	C	0.673813	0.06609	0.130583
1060	C	0.706228	0.099099	0.133683
1061	C	0.750565	0.086107	0.128594
1062	C	0.7634	0.041746	0.123417
1063	C	0.73038	0.009427	0.126951
1064	C	0.96237	0.076605	0.13046
1065	H	0.774173	0.109673	0.12834
1066	C	0.740937	0.298003	0.12728
1067	H	0.951262	0.107788	0.130916
1068	H	0.899371	0.055916	0.126638
1069	H	0.772136	0.28691	0.12676
1070	H	0.720236	0.23501	0.130935
1071	C	0.686811	0.32032	0.378526
1072	C	0.675045	0.275548	0.375212
1073	C	0.707525	0.242575	0.372544
1074	C	0.751794	0.255348	0.378592
1075	C	0.76458	0.299624	0.384533
1076	C	0.731585	0.332096	0.38184
1077	C	0.963601	0.265098	0.373328
1078	C	0.742012	0.043545	0.383651
1079	H	0.775382	0.231757	0.378644
1080	C	0.987124	0.019992	0.378547
1081	C	0.942285	0.008186	0.378913
1082	C	0.909261	0.040454	0.38287
1083	C	0.922219	0.084877	0.378706
1084	C	0.966619	0.097935	0.374479
1085	C	0.998887	0.064848	0.378239
1086	C	0.931714	0.296834	0.376566
1087	H	0.898619	0.108442	0.378758
1088	C	0.710252	0.075416	0.380493
1089	H	0.900495	0.28586	0.375281
1090	H	0.952484	0.233975	0.370995
1091	H	0.72122	0.106628	0.381913
1092	H	0.77313	0.054672	0.385995
1093	C	0.835848	0.00375	0.528112
1094	C	0.8681	0.314583	0.5535
1095	C	0.867859	0.312798	0.602383
1096	C	0.835679	0.338319	0.625442
1097	C	0.803349	0.029686	0.601557
1098	C	0.802642	0.026276	0.552456
1099	H	0.892675	0.299236	0.535788
1100	H	0.835783	0.338896	0.660839
1101	C	0.837275	0.003344	0.979198
1102	C	0.870505	0.025443	0.95447
1103	C	0.869694	0.028073	0.905359
1104	C	0.837051	0.336775	0.881868
1105	C	0.805115	0.311252	0.905307
1106	C	0.804991	0.313832	0.954197
1107	H	0.836627	0.337244	0.846478
1108	H	0.780452	0.298753	0.972231
1109	O	0.771266	0.047796	0.527842
1110	O	0.902017	0.047167	0.978662
1111	H	0.746792	0.02739	0.524231
1112	H	0.92654	0.02681	0.982212
1113	C	0.003825	0.169768	0.77812
1114	C	0.693406	0.202045	0.803059
1115	C	0.695974	0.201932	0.851949
1116	C	0.670389	0.170117	0.875461
1117	C	0.97902	0.1375	0.852028
1118	C	0.981692	0.136591	0.802904
1119	H	0.708509	0.226546	0.784988
1120	H	0.669916	0.170607	0.910851
1121	C	0.003357	0.171194	0.729207
1122	C	0.980819	0.204424	0.704907
1123	C	0.977433	0.203787	0.655803
1124	C	0.668812	0.171501	0.631866
1125	C	0.694423	0.139395	0.654891
1126	C	0.692575	0.139001	0.703787
1127	H	0.668232	0.171418	0.596473
1128	H	0.707962	0.114437	0.721486
1129	O	0.959906	0.105105	0.778732
1130	O	0.959284	0.235764	0.729552
1131	H	0.980265	0.0806	0.775072
1132	H	0.979688	0.260228	0.733229
1133	C	0.985886	0.321574	0.628842
1134	C	0.941053	0.333353	0.627018
1135	C	0.908058	0.300951	0.623758
1136	C	0.920991	0.256588	0.628742
1137	C	0.965332	0.243741	0.633968
1138	C	0.997701	0.276756	0.630664
1139	C	0.930551	0.044796	0.627242
1140	C	0.709135	0.266206	0.630418
1141	H	0.897416	0.23299	0.628863
1142	C	0.68557	0.021251	0.628815
1143	C	0.673813	0.06609	0.630584
1144	C	0.706228	0.099099	0.633684
1145	C	0.750565	0.086107	0.628593
1146	C	0.7634	0.041746	0.623416
1147	C	0.73038	0.009427	0.626952
1148	C	0.96237	0.076605	0.63046
1149	H	0.774173	0.109673	0.628341
1150	C	0.740937	0.298003	0.62728
1151	H	0.951262	0.107788	0.630916
1152	H	0.899371	0.055916	0.626637
1153	H	0.772136	0.28691	0.626762
1154	H	0.720236	0.23501	0.630937
1155	C	0.686811	0.32032	0.878526
1156	C	0.675045	0.275548	0.875212
1157	C	0.707525	0.242575	0.872544
1158	C	0.751794	0.255348	0.878592
1159	C	0.76458	0.299624	0.884533
1160	C	0.731585	0.332096	0.88184
1161	C	0.963601	0.265098	0.873328
1162	C	0.742012	0.043545	0.883651
1163	H	0.775382	0.231757	0.878644
1164	C	0.987124	0.019992	0.878547
1165	C	0.942285	0.008186	0.878913
1166	C	0.909261	0.040454	0.88287
1167	C	0.922219	0.084877	0.878706
1168	C	0.966619	0.097935	0.874479
1169	C	0.998887	0.064848	0.878239
1170	C	0.931714	0.296834	0.876567
1171	H	0.898619	0.108442	0.878758
1172	C	0.710252	0.075416	0.880493
1173	H	0.900495	0.28586	0.875277
1174	H	0.952484	0.233975	0.870995
1175	H	0.72122	0.106628	0.881913
1176	H	0.77313	0.054672	0.885995
1177	C	0.835848	0.337084	0.028112
1178	C	0.8681	0.647915	0.053499
1179	C	0.867859	0.64613	0.102382
1180	C	0.835679	0.671653	0.125443
1181	C	0.803349	0.363018	0.101558
1182	C	0.802642	0.35961	0.052458
1183	H	0.892675	0.632568	0.035787
1184	H	0.835783	0.672226	0.160837
1185	C	0.837275	0.33668	0.479198
1186	C	0.870505	0.358776	0.45447
1187	C	0.869694	0.361405	0.405359
1188	C	0.837051	0.670108	0.381868
1189	C	0.805115	0.644585	0.405307
1190	C	0.804991	0.647166	0.454197
1191	H	0.836627	0.670578	0.346478
1192	H	0.780452	0.632086	0.472231
1193	O	0.771266	0.381128	0.027843
1194	O	0.902017	0.380499	0.478662
1195	H	0.746792	0.360724	0.024231
1196	H	0.92654	0.360144	0.482212
1197	C	0.003825	0.503101	0.278121
1198	C	0.693406	0.535379	0.30306
1199	C	0.695974	0.535265	0.351949
1200	C	0.670389	0.50345	0.375461
1201	C	0.97902	0.470833	0.352028
1202	C	0.981692	0.469924	0.302903
1203	H	0.708509	0.559879	0.284987
1204	H	0.669916	0.503942	0.410851
1205	C	0.003357	0.504528	0.229207
1206	C	0.980819	0.537758	0.204906
1207	C	0.977433	0.537119	0.155801
1208	C	0.668812	0.504834	0.131867
1209	C	0.694423	0.472729	0.15489
1210	C	0.692575	0.472335	0.203788
1211	H	0.668232	0.50475	0.096473
1212	H	0.707962	0.44777	0.221486
1213	O	0.959906	0.438438	0.278733
1214	O	0.959284	0.569097	0.229552
1215	H	0.980265	0.413934	0.275071
1216	H	0.979688	0.593561	0.23323
1217	C	0.985886	0.654908	0.128842
1218	C	0.941053	0.666684	0.127019
1219	C	0.908058	0.634285	0.123759
1220	C	0.920991	0.589922	0.128742
1221	C	0.965332	0.577074	0.133966
1222	C	0.997701	0.610088	0.130665
1223	C	0.930551	0.378127	0.127242
1224	C	0.709135	0.599537	0.130419
1225	H	0.897416	0.566324	0.128864
1226	C	0.68557	0.354585	0.128814
1227	C	0.673813	0.399424	0.130583
1228	C	0.706228	0.432432	0.133683
1229	C	0.750565	0.419441	0.128594
1230	C	0.7634	0.375081	0.123417
1231	C	0.73038	0.34276	0.126951
1232	C	0.96237	0.409939	0.13046
1233	H	0.774173	0.443006	0.12834
1234	C	0.740937	0.631336	0.12728
1235	H	0.951262	0.441119	0.130916
1236	H	0.899371	0.389248	0.126638
1237	H	0.772136	0.620245	0.12676
1238	H	0.720236	0.568344	0.130935
1239	C	0.686811	0.653653	0.378526
1240	C	0.675045	0.608879	0.375212
1241	C	0.707525	0.575907	0.372544
1242	C	0.751794	0.58868	0.378592
1243	C	0.76458	0.632956	0.384533
1244	C	0.731585	0.665426	0.38184
1245	C	0.963601	0.59843	0.373328
1246	C	0.742012	0.376876	0.383651
1247	H	0.775382	0.565089	0.378644
1248	C	0.987124	0.353324	0.378547
1249	C	0.942285	0.341519	0.378913
1250	C	0.909261	0.373787	0.38287
1251	C	0.922219	0.418209	0.378706
1252	C	0.966619	0.431269	0.374479
1253	C	0.998887	0.39818	0.378239
1254	C	0.931714	0.630167	0.376566
1255	H	0.898619	0.441774	0.378758
1256	C	0.710252	0.40875	0.380493
1257	H	0.900495	0.619192	0.375281
1258	H	0.952484	0.567308	0.370995
1259	H	0.72122	0.439962	0.381913
1260	H	0.77313	0.388007	0.385995
1261	C	0.835848	0.337084	0.528112
1262	C	0.8681	0.647915	0.5535
1263	C	0.867859	0.64613	0.602383
1264	C	0.835679	0.671653	0.625442
1265	C	0.803349	0.363018	0.601557
1266	C	0.802642	0.35961	0.552456
1267	H	0.892675	0.632568	0.535788
1268	H	0.835783	0.672226	0.660839
1269	C	0.837275	0.33668	0.979198
1270	C	0.870505	0.358776	0.95447
1271	C	0.869694	0.361405	0.905359
1272	C	0.837051	0.670108	0.881868
1273	C	0.805115	0.644585	0.905307
1274	C	0.804991	0.647166	0.954197
1275	H	0.836627	0.670578	0.846478
1276	H	0.780452	0.632086	0.972231
1277	O	0.771266	0.381128	0.527842
1278	O	0.902017	0.380499	0.978662
1279	H	0.746792	0.360724	0.524231
1280	H	0.92654	0.360144	0.982212
1281	C	0.003825	0.503101	0.77812
1282	C	0.693406	0.535379	0.803059
1283	C	0.695974	0.535265	0.851949
1284	C	0.670389	0.50345	0.875461
1285	C	0.97902	0.470833	0.852028
1286	C	0.981692	0.469924	0.802904
1287	H	0.708509	0.559879	0.784988
1288	H	0.669916	0.503942	0.910851
1289	C	0.003357	0.504528	0.729207
1290	C	0.980819	0.537758	0.704907
1291	C	0.977433	0.537119	0.655803
1292	C	0.668812	0.504834	0.631866
1293	C	0.694423	0.472729	0.654891
1294	C	0.692575	0.472335	0.703787
1295	H	0.668232	0.50475	0.596473
1296	H	0.707962	0.44777	0.721486
1297	O	0.959906	0.438438	0.778732
1298	O	0.959284	0.569097	0.729552
1299	H	0.980265	0.413934	0.775072
1300	H	0.979688	0.593561	0.733229
1301	C	0.985886	0.654908	0.628842
1302	C	0.941053	0.666684	0.627018
1303	C	0.908058	0.634285	0.623758
1304	C	0.920991	0.589922	0.628742
1305	C	0.965332	0.577074	0.633968
1306	C	0.997701	0.610088	0.630664
1307	C	0.930551	0.378127	0.627242
1308	C	0.709135	0.599537	0.630418
1309	H	0.897416	0.566324	0.628863
1310	C	0.68557	0.354585	0.628815
1311	C	0.673813	0.399424	0.630584
1312	C	0.706228	0.432432	0.633684
1313	C	0.750565	0.419441	0.628593
1314	C	0.7634	0.375081	0.623416
1315	C	0.73038	0.34276	0.626952
1316	C	0.96237	0.409939	0.63046
1317	H	0.774173	0.443006	0.628341
1318	C	0.740937	0.631336	0.62728
1319	H	0.951262	0.441119	0.630916
1320	H	0.899371	0.389248	0.626637
1321	H	0.772136	0.620245	0.626762
1322	H	0.720236	0.568344	0.630937
1323	C	0.686811	0.653653	0.878526
1324	C	0.675045	0.608879	0.875212
1325	C	0.707525	0.575907	0.872544
1326	C	0.751794	0.58868	0.878592
1327	C	0.76458	0.632956	0.884533
1328	C	0.731585	0.665426	0.88184
1329	C	0.963601	0.59843	0.873328
1330	C	0.742012	0.376876	0.883651
1331	H	0.775382	0.565089	0.878644
1332	C	0.987124	0.353324	0.878547
1333	C	0.942285	0.341519	0.878913
1334	C	0.909261	0.373787	0.88287
1335	C	0.922219	0.418209	0.878706
1336	C	0.966619	0.431269	0.874479
1337	C	0.998887	0.39818	0.878239
1338	C	0.931714	0.630167	0.876567
1339	H	0.898619	0.441774	0.878758
1340	C	0.710252	0.40875	0.880493
1341	H	0.900495	0.619192	0.875277
1342	H	0.952484	0.567308	0.870995
1343	H	0.72122	0.439962	0.881913
1344	H	0.77313	0.388007	0.885995
1345	C	0.835848	0.670415	0.028112
1346	C	0.8681	0.981249	0.053499
1347	C	0.867859	0.979463	0.102382
1348	C	0.835679	0.004986	0.125443
1349	C	0.803349	0.696352	0.101558
1350	C	0.802642	0.69294	0.052458
1351	H	0.892675	0.965902	0.035787
1352	H	0.835783	0.005562	0.160837
1353	C	0.837275	0.670014	0.479198
1354	C	0.870505	0.692109	0.45447
1355	C	0.869694	0.694739	0.405359
1356	C	0.837051	0.003442	0.381868
1357	C	0.805115	0.977919	0.405307
1358	C	0.804991	0.980496	0.454197
1359	H	0.836627	0.003912	0.346478
1360	H	0.780452	0.96542	0.472231
1361	O	0.771266	0.714462	0.027843
1362	O	0.902017	0.713833	0.478662
1363	H	0.746792	0.694055	0.024231
1364	H	0.92654	0.693475	0.482212
1365	C	0.003825	0.836435	0.278121
1366	C	0.693406	0.868709	0.30306
1367	C	0.695974	0.868599	0.351949
1368	C	0.670389	0.836783	0.375461
1369	C	0.97902	0.804167	0.352028
1370	C	0.981692	0.803257	0.302903
1371	H	0.708509	0.893213	0.284987
1372	H	0.669916	0.837272	0.410851
1373	C	0.003357	0.837859	0.229207
1374	C	0.980819	0.871088	0.204906
1375	C	0.977433	0.870453	0.155801
1376	C	0.668812	0.838168	0.131867
1377	C	0.694423	0.80606	0.15489
1378	C	0.692575	0.805665	0.203788
1379	H	0.668232	0.838084	0.096473
1380	H	0.707962	0.781103	0.221486
1381	O	0.959906	0.771771	0.278733
1382	O	0.959284	0.902431	0.229552
1383	H	0.980265	0.747265	0.275071
1384	H	0.979688	0.926895	0.23323
1385	C	0.985886	0.988238	0.128842
1386	C	0.941053	1.8e-05	0.127019
1387	C	0.908058	0.967616	0.123759
1388	C	0.920991	0.923256	0.128742
1389	C	0.965332	0.910408	0.133966
1390	C	0.997701	0.943422	0.130665
1391	C	0.930551	0.711461	0.127242
1392	C	0.709135	0.932871	0.130419
1393	H	0.897416	0.899655	0.128864
1394	C	0.68557	0.687916	0.128814
1395	C	0.673813	0.732755	0.130583
1396	C	0.706228	0.765766	0.133683
1397	C	0.750565	0.752771	0.128594
1398	C	0.7634	0.708411	0.123417
1399	C	0.73038	0.676094	0.126951
1400	C	0.96237	0.74327	0.13046
1401	H	0.774173	0.77634	0.12834
1402	C	0.740937	0.96467	0.12728
1403	H	0.951262	0.774453	0.130916
1404	H	0.899371	0.722582	0.126638
1405	H	0.772136	0.953575	0.12676
1406	H	0.720236	0.901675	0.130935
1407	C	0.686811	0.986987	0.378526
1408	C	0.675045	0.942213	0.375212
1409	C	0.707525	0.909241	0.372544
1410	C	0.751794	0.922014	0.378592
1411	C	0.76458	0.96629	0.384533
1412	C	0.731585	0.99876	0.38184
1413	C	0.963601	0.931763	0.373328
1414	C	0.742012	0.71021	0.383651
1415	H	0.775382	0.898423	0.378644
1416	C	0.987124	0.686658	0.378547
1417	C	0.942285	0.674853	0.378913
1418	C	0.909261	0.707121	0.38287
1419	C	0.922219	0.751543	0.378706
1420	C	0.966619	0.764599	0.374479
1421	C	0.998887	0.731513	0.378239
1422	C	0.931714	0.9635	0.376566
1423	H	0.898619	0.775108	0.378758
1424	C	0.710252	0.742081	0.380493
1425	H	0.900495	0.952526	0.375281
1426	H	0.952484	0.900642	0.370995
1427	H	0.72122	0.773293	0.381913
1428	H	0.77313	0.721337	0.385995
1429	C	0.835848	0.670415	0.528112
1430	C	0.8681	0.981249	0.5535
1431	C	0.867859	0.979463	0.602383
1432	C	0.835679	0.004986	0.625442
1433	C	0.803349	0.696352	0.601557
1434	C	0.802642	0.69294	0.552456
1435	H	0.892675	0.965902	0.535788
1436	H	0.835783	0.005562	0.660839
1437	C	0.837275	0.670014	0.979198
1438	C	0.870505	0.692109	0.95447
1439	C	0.869694	0.694739	0.905359
1440	C	0.837051	0.003442	0.881868
1441	C	0.805115	0.977919	0.905307
1442	C	0.804991	0.980496	0.954197
1443	H	0.836627	0.003912	0.846478
1444	H	0.780452	0.96542	0.972231
1445	O	0.771266	0.714462	0.527842
1446	O	0.902017	0.713833	0.978662
1447	H	0.746792	0.694055	0.524231
1448	H	0.92654	0.693475	0.982212
1449	C	0.003825	0.836435	0.77812
1450	C	0.693406	0.868709	0.803059
1451	C	0.695974	0.868599	0.851949
1452	C	0.670389	0.836783	0.875461
1453	C	0.97902	0.804167	0.852028
1454	C	0.981692	0.803257	0.802904
1455	H	0.708509	0.893213	0.784988
1456	H	0.669916	0.837272	0.910851
1457	C	0.003357	0.837859	0.729207
1458	C	0.980819	0.871088	0.704907
1459	C	0.977433	0.870453	0.655803
1460	C	0.668812	0.838168	0.631866
1461	C	0.694423	0.80606	0.654891
1462	C	0.692575	0.805665	0.703787
1463	H	0.668232	0.838084	0.596473
1464	H	0.707962	0.781103	0.721486
1465	O	0.959906	0.771771	0.778732
1466	O	0.959284	0.902431	0.729552
1467	H	0.980265	0.747265	0.775072
1468	H	0.979688	0.926895	0.733229
1469	C	0.985886	0.988238	0.628842
1470	C	0.941053	1.8e-05	0.627018
1471	C	0.908058	0.967616	0.623758
1472	C	0.920991	0.923256	0.628742
1473	C	0.965332	0.910408	0.633968
1474	C	0.997701	0.943422	0.630664
1475	C	0.930551	0.711461	0.627242
1476	C	0.709135	0.932871	0.630418
1477	H	0.897416	0.899655	0.628863
1478	C	0.68557	0.687916	0.628815
1479	C	0.673813	0.732755	0.630584
1480	C	0.706228	0.765766	0.633684
1481	C	0.750565	0.752771	0.628593
1482	C	0.7634	0.708411	0.623416
1483	C	0.73038	0.676094	0.626952
1484	C	0.96237	0.74327	0.63046
1485	H	0.774173	0.77634	0.628341
1486	C	0.740937	0.96467	0.62728
1487	H	0.951262	0.774453	0.630916
1488	H	0.899371	0.722582	0.626637
1489	H	0.772136	0.953575	0.626762
1490	H	0.720236	0.901675	0.630937
1491	C	0.686811	0.986987	0.878526
1492	C	0.675045	0.942213	0.875212
1493	C	0.707525	0.909241	0.872544
1494	C	0.751794	0.922014	0.878592
1495	C	0.76458	0.96629	0.884533
1496	C	0.731585	0.99876	0.88184
1497	C	0.963601	0.931763	0.873328
1498	C	0.742012	0.71021	0.883651
1499	H	0.775382	0.898423	0.878644
1500	C	0.987124	0.686658	0.878547
1501	C	0.942285	0.674853	0.878913
1502	C	0.909261	0.707121	0.88287
1503	C	0.922219	0.751543	0.878706
1504	C	0.966619	0.764599	0.874479
1505	C	0.998887	0.731513	0.878239
1506	C	0.931714	0.9635	0.876567
1507	H	0.898619	0.775108	0.878758
1508	C	0.710252	0.742081	0.880493
1509	H	0.900495	0.952526	0.875277
1510	H	0.952484	0.900642	0.870995
1511	H	0.72122	0.773293	0.881913
1512	H	0.77313	0.721337	0.885995
