data_C768N768_2018-02-15_12:33:03
#******************************************
#
# CIF file created by Zeo++
# Zeo++ is an open source package to
# analyze microporous materials
#
#*******************************************

_cell_length_a		40.0288   
_cell_length_b		28.467   
_cell_length_c		25.7912   
_cell_angle_alpha		90.0108   
_cell_angle_beta		90   
_cell_angle_gamma		90.0117   

_symmetry_space_group_name_H-M		'P1'
_symmetry_Int_Tables_number		1
_symmetry_cell_setting		Triclinic

loop_
_symmetry_equiv_pos_as_xyz
'+x,+y,+z'

loop_
_atom_site_label
_atom_site_type_symbol
_atom_site_fract_x
_atom_site_fract_y
_atom_site_fract_z
1	C	0.172846	0.30873	0.461972
2	N	0.151401	0.346085	0.461918
3	C	0.141293	0.366729	0.507511
4	N	0.151402	0.346161	0.053139
5	C	0.172824	0.308781	0.053167
6	N	0.18414	0.292951	0.507581
7	C	0.340879	0.217035	0.461926
8	N	0.362283	0.179631	0.461895
9	C	0.372365	0.158998	0.507499
10	N	0.362263	0.179604	0.053114
11	C	0.340884	0.217032	0.053118
12	N	0.329579	0.232856	0.507526
13	C	0.340705	0.308986	0.303119
14	N	0.362235	0.346255	0.303151
15	C	0.372335	0.366865	0.257542
16	N	0.36224	0.346254	0.211926
17	C	0.340825	0.308862	0.211922
18	N	0.32946	0.293106	0.257508
19	C	0.172995	0.216854	0.303079
20	N	0.151424	0.179635	0.303129
21	C	0.141307	0.159012	0.257528
22	N	0.15144	0.179548	0.211897
23	C	0.173013	0.216761	0.211884
24	N	0.184319	0.232605	0.25747
25	C	0.422859	0.05879	0.461968
26	N	0.401405	0.096135	0.461918
27	C	0.391295	0.116775	0.507511
28	N	0.401408	0.096211	0.053139
29	C	0.422839	0.058842	0.053168
30	N	0.434154	0.043015	0.507581
31	C	0.090865	0.466974	0.461926
32	N	0.112278	0.429583	0.461895
33	C	0.122362	0.40895	0.507499
34	N	0.112257	0.429552	0.053114
35	C	0.09087	0.466971	0.053119
36	N	0.079564	0.482789	0.507526
37	C	0.090718	0.058928	0.303118
38	N	0.112235	0.09621	0.30315
39	C	0.122333	0.116823	0.257542
40	N	0.112241	0.096209	0.211927
41	C	0.090838	0.058803	0.211923
42	N	0.079477	0.043041	0.257508
43	C	0.422981	0.466912	0.303078
44	N	0.401424	0.429679	0.303129
45	C	0.391308	0.409054	0.257528
46	N	0.401439	0.429593	0.211897
47	C	0.423001	0.466819	0.211884
48	N	0.434303	0.482669	0.25747
49	C	0.07558	0.036445	0.169974
50	N	0.092743	0.012865	0.132527
51	C	0.075583	0.489295	0.095065
52	N	0.041637	0.492839	0.093406
53	C	0.024296	0.012938	0.132452
54	N	0.041632	0.032977	0.171541
55	C	0.438168	0.48935	0.16997
56	N	0.420964	0.012876	0.132534
57	C	0.438115	0.036488	0.095096
58	N	0.472065	0.033032	0.093444
59	C	0.48943	0.01296	0.13247
60	N	0.472114	0.49286	0.171532
61	C	0.438153	0.489524	0.344941
62	N	0.420961	0.012893	0.382518
63	C	0.438122	0.036299	0.420109
64	N	0.472073	0.032848	0.42171
65	C	0.489427	0.012891	0.382595
66	N	0.472102	0.492956	0.343435
67	C	0.075558	0.036333	0.344996
68	N	0.09276	0.012902	0.382507
69	C	0.075605	0.489375	0.420008
70	N	0.041657	0.49285	0.421652
71	C	0.024295	0.012862	0.382585
72	N	0.041612	0.032865	0.343464
73	C	0.325572	0.286488	0.169977
74	N	0.342744	0.262926	0.132524
75	C	0.32559	0.239339	0.095067
76	N	0.291643	0.242861	0.09341
77	C	0.274296	0.262946	0.132458
78	N	0.291626	0.282996	0.171546
79	C	0.188174	0.239306	0.169973
80	N	0.170965	0.262816	0.132532
81	C	0.188109	0.286443	0.095098
82	N	0.22206	0.283011	0.093448
83	C	0.239429	0.262951	0.132476
84	N	0.222119	0.24284	0.171537
85	C	0.18816	0.239481	0.344939
86	N	0.170962	0.262833	0.38252
87	C	0.188117	0.286254	0.420109
88	N	0.222068	0.282826	0.421706
89	C	0.239428	0.262882	0.382589
90	N	0.222107	0.242936	0.34343
91	C	0.325552	0.286376	0.344994
92	N	0.342762	0.262962	0.382509
93	C	0.325613	0.239421	0.420004
94	N	0.291663	0.242871	0.421648
95	C	0.274296	0.26287	0.382579
96	N	0.291606	0.282885	0.343459
97	C	0.172846	0.30873	0.961969
98	N	0.151401	0.346085	0.961915
99	C	0.141293	0.366726	0.007512
100	N	0.151402	0.346161	0.553139
101	C	0.172824	0.308781	0.553166
102	N	0.18414	0.292951	0.007582
103	C	0.340879	0.217034	0.961922
104	N	0.362283	0.179631	0.961895
105	C	0.372365	0.158998	0.0075
106	N	0.362263	0.179603	0.553112
107	C	0.340884	0.217032	0.553116
108	N	0.329579	0.232856	0.007527
109	C	0.340705	0.308986	0.80312
110	N	0.362235	0.346255	0.803151
111	C	0.372335	0.366866	0.757542
112	N	0.36224	0.346254	0.711926
113	C	0.340825	0.308862	0.711922
114	N	0.32946	0.293106	0.757507
115	C	0.172995	0.216854	0.803077
116	N	0.151424	0.179635	0.803128
117	C	0.141307	0.159012	0.757527
118	N	0.15144	0.179548	0.711895
119	C	0.173013	0.216762	0.711883
120	N	0.184319	0.232605	0.757469
121	C	0.422859	0.05879	0.961969
122	N	0.401405	0.096135	0.961915
123	C	0.391295	0.116775	0.007512
124	N	0.401408	0.096211	0.553139
125	C	0.422839	0.058842	0.553166
126	N	0.434154	0.043015	0.007582
127	C	0.090865	0.466975	0.961922
128	N	0.112278	0.429581	0.961895
129	C	0.122362	0.408951	0.0075
130	N	0.112257	0.429553	0.553112
131	C	0.09087	0.466972	0.55312
132	N	0.079564	0.48279	0.007527
133	C	0.090718	0.058928	0.803116
134	N	0.112235	0.096211	0.803151
135	C	0.122333	0.116823	0.757542
136	N	0.112241	0.096209	0.711926
137	C	0.090838	0.058803	0.711922
138	N	0.079477	0.043041	0.757507
139	C	0.422981	0.466913	0.803077
140	N	0.401424	0.42968	0.803128
141	C	0.391308	0.409052	0.757527
142	N	0.401439	0.429591	0.711895
143	C	0.423001	0.46682	0.711883
144	N	0.434303	0.48267	0.757469
145	C	0.07558	0.036445	0.669974
146	N	0.092743	0.012865	0.632527
147	C	0.075583	0.489293	0.595064
148	N	0.041637	0.49284	0.593405
149	C	0.024296	0.012938	0.632453
150	N	0.041632	0.032977	0.67154
151	C	0.438168	0.489351	0.66997
152	N	0.420964	0.012876	0.632534
153	C	0.438115	0.036488	0.595095
154	N	0.472065	0.033032	0.593444
155	C	0.48943	0.01296	0.632468
156	N	0.472114	0.492861	0.671532
157	C	0.438153	0.489525	0.84494
158	N	0.420961	0.012893	0.882515
159	C	0.438122	0.036299	0.92011
160	N	0.472073	0.032848	0.921711
161	C	0.489427	0.012891	0.882593
162	N	0.472102	0.492957	0.843436
163	C	0.075558	0.036333	0.844995
164	N	0.09276	0.012902	0.882508
165	C	0.075605	0.489376	0.920005
166	N	0.041657	0.492851	0.921653
167	C	0.024295	0.012862	0.882585
168	N	0.041612	0.032865	0.843463
169	C	0.325572	0.286488	0.669977
170	N	0.342744	0.262926	0.632523
171	C	0.32559	0.239339	0.595064
172	N	0.291643	0.242861	0.593409
173	C	0.274296	0.262946	0.632457
174	N	0.291626	0.282996	0.671548
175	C	0.188174	0.239306	0.669974
176	N	0.170965	0.262816	0.632531
177	C	0.188109	0.286443	0.595095
178	N	0.22206	0.283011	0.593447
179	C	0.239429	0.262951	0.632476
180	N	0.222119	0.24284	0.671536
181	C	0.18816	0.239481	0.844937
182	N	0.170962	0.262833	0.882519
183	C	0.188117	0.286254	0.920106
184	N	0.222068	0.282826	0.921707
185	C	0.239428	0.262882	0.882589
186	N	0.222107	0.242936	0.843428
187	C	0.325552	0.286376	0.844995
188	N	0.342762	0.262962	0.882508
189	C	0.325613	0.239421	0.920005
190	N	0.291663	0.242871	0.921649
191	C	0.274296	0.26287	0.882577
192	N	0.291606	0.282885	0.843459
193	C	0.172846	0.808731	0.461972
194	N	0.151401	0.846086	0.461918
195	C	0.141293	0.866729	0.507511
196	N	0.151402	0.846161	0.053139
197	C	0.172824	0.808781	0.053167
198	N	0.184139	0.792952	0.507581
199	C	0.340879	0.717035	0.461926
200	N	0.362283	0.679631	0.461895
201	C	0.372365	0.658997	0.507499
202	N	0.362263	0.679603	0.053114
203	C	0.340884	0.717032	0.053118
204	N	0.329579	0.732854	0.507526
205	C	0.340705	0.808985	0.303119
206	N	0.362235	0.846256	0.303151
207	C	0.372336	0.866865	0.257542
208	N	0.36224	0.846255	0.211926
209	C	0.340825	0.808864	0.211922
210	N	0.329461	0.793106	0.257508
211	C	0.172995	0.716854	0.303079
212	N	0.151424	0.679635	0.303129
213	C	0.141307	0.65901	0.257528
214	N	0.15144	0.679549	0.211897
215	C	0.173013	0.716761	0.211884
216	N	0.184319	0.732604	0.25747
217	C	0.422859	0.558789	0.461968
218	N	0.401405	0.596134	0.461918
219	C	0.391296	0.616776	0.507511
220	N	0.401408	0.596212	0.053139
221	C	0.422839	0.558842	0.053168
222	N	0.434154	0.543017	0.507581
223	C	0.090865	0.966974	0.461926
224	N	0.112278	0.929583	0.461895
225	C	0.122363	0.908949	0.507499
226	N	0.112257	0.929552	0.053114
227	C	0.09087	0.966971	0.053119
228	N	0.079564	0.982789	0.507526
229	C	0.090718	0.558927	0.303118
230	N	0.112235	0.596212	0.30315
231	C	0.122333	0.616825	0.257542
232	N	0.112241	0.596211	0.211927
233	C	0.090838	0.558802	0.211923
234	N	0.079476	0.543041	0.257508
235	C	0.422981	0.966912	0.303078
236	N	0.401424	0.929679	0.303129
237	C	0.391308	0.909054	0.257528
238	N	0.401439	0.929593	0.211897
239	C	0.423001	0.966819	0.211884
240	N	0.434303	0.982669	0.25747
241	C	0.07558	0.536447	0.169974
242	N	0.092743	0.512866	0.132527
243	C	0.075583	0.989295	0.095065
244	N	0.041637	0.992839	0.093406
245	C	0.024296	0.512939	0.132452
246	N	0.041632	0.532976	0.171541
247	C	0.438168	0.98935	0.16997
248	N	0.420964	0.512876	0.132534
249	C	0.438115	0.53649	0.095096
250	N	0.472065	0.533033	0.093444
251	C	0.48943	0.51296	0.13247
252	N	0.472115	0.992859	0.171532
253	C	0.438153	0.989524	0.344941
254	N	0.420962	0.512894	0.382518
255	C	0.438123	0.5363	0.420109
256	N	0.472073	0.532847	0.42171
257	C	0.489427	0.512891	0.382595
258	N	0.472102	0.992956	0.343435
259	C	0.075558	0.536332	0.344996
260	N	0.09276	0.512901	0.382507
261	C	0.075605	0.989375	0.420008
262	N	0.041657	0.992849	0.421652
263	C	0.024295	0.512863	0.382585
264	N	0.041612	0.532865	0.343464
265	C	0.325573	0.786487	0.169977
266	N	0.342742	0.762927	0.132524
267	C	0.325591	0.739339	0.095067
268	N	0.291643	0.742862	0.09341
269	C	0.274296	0.762945	0.132458
270	N	0.291626	0.782995	0.171546
271	C	0.188174	0.739306	0.169973
272	N	0.170965	0.762818	0.132532
273	C	0.188109	0.786443	0.095098
274	N	0.22206	0.78301	0.093448
275	C	0.239429	0.762952	0.132476
276	N	0.222119	0.74284	0.171537
277	C	0.18816	0.73948	0.344939
278	N	0.170962	0.762833	0.38252
279	C	0.188117	0.786256	0.420109
280	N	0.222068	0.782827	0.421706
281	C	0.239428	0.762882	0.382589
282	N	0.222107	0.742936	0.34343
283	C	0.325552	0.786376	0.344994
284	N	0.342759	0.762963	0.382509
285	C	0.325613	0.739422	0.420004
286	N	0.291663	0.742872	0.421648
287	C	0.274296	0.762871	0.382579
288	N	0.291606	0.782884	0.343459
289	C	0.172846	0.808728	0.961969
290	N	0.151401	0.846084	0.961915
291	C	0.141293	0.866726	0.007512
292	N	0.151402	0.846162	0.553139
293	C	0.172824	0.808782	0.553166
294	N	0.184139	0.792951	0.007582
295	C	0.340879	0.717033	0.961922
296	N	0.362283	0.679632	0.961895
297	C	0.372365	0.658998	0.0075
298	N	0.362263	0.679604	0.553112
299	C	0.340884	0.717033	0.553116
300	N	0.329579	0.732855	0.007527
301	C	0.340705	0.808986	0.80312
302	N	0.362235	0.846254	0.803151
303	C	0.372336	0.866866	0.757542
304	N	0.36224	0.846256	0.711926
305	C	0.340825	0.808861	0.711922
306	N	0.329461	0.793107	0.757507
307	C	0.172995	0.716855	0.803077
308	N	0.151424	0.679636	0.803128
309	C	0.141307	0.659012	0.757527
310	N	0.15144	0.679547	0.711895
311	C	0.173013	0.716762	0.711883
312	N	0.184319	0.732605	0.757469
313	C	0.422859	0.55879	0.961969
314	N	0.401405	0.596135	0.961915
315	C	0.391296	0.616774	0.007512
316	N	0.401408	0.596209	0.553139
317	C	0.422837	0.558843	0.553166
318	N	0.434154	0.543016	0.007582
319	C	0.090865	0.966975	0.961922
320	N	0.112278	0.929581	0.961895
321	C	0.122363	0.908951	0.0075
322	N	0.112257	0.929553	0.553112
323	C	0.09087	0.966972	0.55312
324	N	0.079564	0.98279	0.007527
325	C	0.090718	0.558928	0.803116
326	N	0.112235	0.59621	0.803151
327	C	0.122333	0.616822	0.757542
328	N	0.112241	0.596208	0.711926
329	C	0.090838	0.558804	0.711922
330	N	0.079476	0.543042	0.757507
331	C	0.422981	0.966913	0.803077
332	N	0.401424	0.92968	0.803128
333	C	0.391308	0.909052	0.757527
334	N	0.401439	0.929591	0.711895
335	C	0.423001	0.96682	0.711883
336	N	0.434303	0.98267	0.757469
337	C	0.07558	0.536444	0.669974
338	N	0.092743	0.512867	0.632527
339	C	0.075583	0.989293	0.595064
340	N	0.041637	0.99284	0.593405
341	C	0.024296	0.512937	0.632453
342	N	0.041632	0.532977	0.67154
343	C	0.438168	0.989351	0.66997
344	N	0.420964	0.512877	0.632534
345	C	0.438115	0.536488	0.595095
346	N	0.472065	0.533031	0.593444
347	C	0.48943	0.512961	0.632468
348	N	0.472115	0.992861	0.671532
349	C	0.438153	0.989525	0.84494
350	N	0.420962	0.512892	0.882515
351	C	0.438123	0.536301	0.92011
352	N	0.472073	0.532848	0.921711
353	C	0.489427	0.512892	0.882593
354	N	0.472102	0.992957	0.843436
355	C	0.075558	0.536334	0.844995
356	N	0.09276	0.512902	0.882508
357	C	0.075605	0.989376	0.920005
358	N	0.041657	0.992851	0.921653
359	C	0.024295	0.512864	0.882585
360	N	0.041612	0.532866	0.843463
361	C	0.325573	0.786488	0.669977
362	N	0.342742	0.762928	0.632523
363	C	0.325591	0.73934	0.595064
364	N	0.291643	0.74286	0.593409
365	C	0.274296	0.762946	0.632457
366	N	0.291626	0.782997	0.671548
367	C	0.188174	0.739307	0.669974
368	N	0.170965	0.762816	0.632531
369	C	0.188109	0.786444	0.595095
370	N	0.22206	0.783011	0.593447
371	C	0.239429	0.762949	0.632476
372	N	0.222119	0.742841	0.671536
373	C	0.18816	0.739481	0.844937
374	N	0.170962	0.762834	0.882519
375	C	0.188117	0.786253	0.920106
376	N	0.222068	0.782825	0.921707
377	C	0.239428	0.762883	0.882589
378	N	0.222107	0.742937	0.843428
379	C	0.325552	0.786377	0.844995
380	N	0.342759	0.762964	0.882508
381	C	0.325613	0.73942	0.920005
382	N	0.291663	0.74287	0.921649
383	C	0.274296	0.762869	0.882577
384	N	0.291606	0.782885	0.843459
385	C	0.672846	0.30873	0.461972
386	N	0.651402	0.346085	0.461918
387	C	0.641292	0.366729	0.507511
388	N	0.651402	0.346161	0.053139
389	C	0.672823	0.308781	0.053167
390	N	0.68414	0.292951	0.507581
391	C	0.840879	0.217035	0.461926
392	N	0.862283	0.179631	0.461895
393	C	0.872365	0.158998	0.507499
394	N	0.862263	0.179604	0.053114
395	C	0.840884	0.217032	0.053118
396	N	0.829579	0.232856	0.507526
397	C	0.840705	0.308986	0.303119
398	N	0.862235	0.346255	0.303151
399	C	0.872336	0.366865	0.257542
400	N	0.86224	0.346254	0.211926
401	C	0.840825	0.308862	0.211922
402	N	0.829461	0.293106	0.257508
403	C	0.672995	0.216854	0.303079
404	N	0.651422	0.179635	0.303129
405	C	0.641307	0.159012	0.257528
406	N	0.65144	0.179548	0.211897
407	C	0.673012	0.216761	0.211884
408	N	0.684319	0.232605	0.25747
409	C	0.922859	0.05879	0.461968
410	N	0.901405	0.096135	0.461918
411	C	0.891296	0.116775	0.507511
412	N	0.901405	0.096211	0.053139
413	C	0.922837	0.058842	0.053168
414	N	0.934154	0.043015	0.507581
415	C	0.590865	0.466974	0.461926
416	N	0.612279	0.429583	0.461895
417	C	0.622362	0.40895	0.507499
418	N	0.612257	0.429552	0.053114
419	C	0.59087	0.466971	0.053119
420	N	0.579563	0.482789	0.507526
421	C	0.590718	0.058928	0.303118
422	N	0.612236	0.09621	0.30315
423	C	0.622334	0.116823	0.257542
424	N	0.612241	0.096209	0.211927
425	C	0.590838	0.058803	0.211923
426	N	0.579477	0.043041	0.257508
427	C	0.922981	0.466912	0.303078
428	N	0.901424	0.429679	0.303129
429	C	0.891308	0.409054	0.257528
430	N	0.901439	0.429593	0.211897
431	C	0.923001	0.466819	0.211884
432	N	0.934303	0.482669	0.25747
433	C	0.575581	0.036445	0.169974
434	N	0.592743	0.012865	0.132527
435	C	0.575582	0.489295	0.095065
436	N	0.541637	0.492839	0.093406
437	C	0.524295	0.012938	0.132452
438	N	0.541632	0.032977	0.171541
439	C	0.938168	0.48935	0.16997
440	N	0.920964	0.012876	0.132534
441	C	0.938115	0.036488	0.095096
442	N	0.972065	0.033032	0.093444
443	C	0.98943	0.01296	0.13247
444	N	0.972112	0.49286	0.171532
445	C	0.938153	0.489524	0.344941
446	N	0.920962	0.012893	0.382518
447	C	0.938123	0.036299	0.420109
448	N	0.972073	0.032848	0.42171
449	C	0.989427	0.012891	0.382595
450	N	0.972102	0.492956	0.343435
451	C	0.575559	0.036333	0.344996
452	N	0.59276	0.012902	0.382507
453	C	0.575604	0.489375	0.420008
454	N	0.541657	0.49285	0.421652
455	C	0.524295	0.012862	0.382585
456	N	0.541612	0.032865	0.343464
457	C	0.825573	0.286488	0.169977
458	N	0.842742	0.262926	0.132524
459	C	0.825591	0.239339	0.095067
460	N	0.791643	0.242861	0.09341
461	C	0.774296	0.262946	0.132458
462	N	0.791626	0.282996	0.171546
463	C	0.688175	0.239306	0.169973
464	N	0.670965	0.262816	0.132532
465	C	0.688109	0.286443	0.095098
466	N	0.722059	0.283011	0.093448
467	C	0.739429	0.262951	0.132476
468	N	0.722118	0.24284	0.171537
469	C	0.68816	0.239481	0.344939
470	N	0.670963	0.262833	0.38252
471	C	0.688116	0.286254	0.420109
472	N	0.722069	0.282826	0.421706
473	C	0.739429	0.262882	0.382589
474	N	0.722108	0.242936	0.34343
475	C	0.82555	0.286376	0.344994
476	N	0.842759	0.262962	0.382509
477	C	0.825611	0.239421	0.420004
478	N	0.791663	0.242871	0.421648
479	C	0.774296	0.26287	0.382579
480	N	0.791606	0.282885	0.343459
481	C	0.672846	0.30873	0.961969
482	N	0.651402	0.346085	0.961915
483	C	0.641292	0.366726	0.007512
484	N	0.651402	0.346161	0.553139
485	C	0.672823	0.308781	0.553166
486	N	0.68414	0.292951	0.007582
487	C	0.840879	0.217034	0.961922
488	N	0.862283	0.179631	0.961895
489	C	0.872365	0.158998	0.0075
490	N	0.862263	0.179603	0.553112
491	C	0.840884	0.217032	0.553116
492	N	0.829579	0.232856	0.007527
493	C	0.840705	0.308986	0.80312
494	N	0.862235	0.346255	0.803151
495	C	0.872336	0.366866	0.757542
496	N	0.86224	0.346254	0.711926
497	C	0.840825	0.308862	0.711922
498	N	0.829461	0.293106	0.757507
499	C	0.672995	0.216854	0.803077
500	N	0.651422	0.179635	0.803128
501	C	0.641307	0.159012	0.757527
502	N	0.65144	0.179548	0.711895
503	C	0.673012	0.216762	0.711883
504	N	0.684319	0.232605	0.757469
505	C	0.922859	0.05879	0.961969
506	N	0.901405	0.096135	0.961915
507	C	0.891296	0.116775	0.007512
508	N	0.901405	0.096211	0.553139
509	C	0.922837	0.058842	0.553166
510	N	0.934154	0.043015	0.007582
511	C	0.590865	0.466975	0.961922
512	N	0.612279	0.429581	0.961895
513	C	0.622362	0.408951	0.0075
514	N	0.612257	0.429553	0.553112
515	C	0.59087	0.466972	0.55312
516	N	0.579563	0.48279	0.007527
517	C	0.590718	0.058928	0.803116
518	N	0.612236	0.096211	0.803151
519	C	0.622334	0.116823	0.757542
520	N	0.612241	0.096209	0.711926
521	C	0.590838	0.058803	0.711922
522	N	0.579477	0.043041	0.757507
523	C	0.922981	0.466913	0.803077
524	N	0.901424	0.42968	0.803128
525	C	0.891308	0.409052	0.757527
526	N	0.901439	0.429591	0.711895
527	C	0.923001	0.46682	0.711883
528	N	0.934303	0.48267	0.757469
529	C	0.575581	0.036445	0.669974
530	N	0.592743	0.012865	0.632527
531	C	0.575582	0.489293	0.595064
532	N	0.541637	0.49284	0.593405
533	C	0.524295	0.012938	0.632453
534	N	0.541632	0.032977	0.67154
535	C	0.938168	0.489351	0.66997
536	N	0.920964	0.012876	0.632534
537	C	0.938115	0.036488	0.595095
538	N	0.972065	0.033032	0.593444
539	C	0.98943	0.01296	0.632468
540	N	0.972112	0.492861	0.671532
541	C	0.938153	0.489525	0.84494
542	N	0.920962	0.012893	0.882515
543	C	0.938123	0.036299	0.92011
544	N	0.972073	0.032848	0.921711
545	C	0.989427	0.012891	0.882593
546	N	0.972102	0.492957	0.843436
547	C	0.575559	0.036333	0.844995
548	N	0.59276	0.012902	0.882508
549	C	0.575604	0.489376	0.920005
550	N	0.541657	0.492851	0.921653
551	C	0.524295	0.012862	0.882585
552	N	0.541612	0.032865	0.843463
553	C	0.825573	0.286488	0.669977
554	N	0.842742	0.262926	0.632523
555	C	0.825591	0.239339	0.595064
556	N	0.791643	0.242861	0.593409
557	C	0.774296	0.262946	0.632457
558	N	0.791626	0.282996	0.671548
559	C	0.688175	0.239306	0.669974
560	N	0.670965	0.262816	0.632531
561	C	0.688109	0.286443	0.595095
562	N	0.722059	0.283011	0.593447
563	C	0.739429	0.262951	0.632476
564	N	0.722118	0.24284	0.671536
565	C	0.68816	0.239481	0.844937
566	N	0.670963	0.262833	0.882519
567	C	0.688116	0.286254	0.920106
568	N	0.722069	0.282826	0.921707
569	C	0.739429	0.262882	0.882589
570	N	0.722108	0.242936	0.843428
571	C	0.82555	0.286376	0.844995
572	N	0.842759	0.262962	0.882508
573	C	0.825611	0.239421	0.920005
574	N	0.791663	0.242871	0.921649
575	C	0.774296	0.26287	0.882577
576	N	0.791606	0.282885	0.843459
577	C	0.672846	0.808731	0.461972
578	N	0.651402	0.846086	0.461918
579	C	0.641292	0.866729	0.507511
580	N	0.651402	0.846161	0.053139
581	C	0.672823	0.808781	0.053167
582	N	0.68414	0.792952	0.507581
583	C	0.840879	0.717035	0.461926
584	N	0.862283	0.679631	0.461895
585	C	0.872365	0.658997	0.507499
586	N	0.862263	0.679603	0.053114
587	C	0.840884	0.717032	0.053118
588	N	0.829579	0.732854	0.507526
589	C	0.840705	0.808985	0.303119
590	N	0.862235	0.846256	0.303151
591	C	0.872336	0.866865	0.257542
592	N	0.86224	0.846255	0.211926
593	C	0.840825	0.808864	0.211922
594	N	0.829461	0.793106	0.257508
595	C	0.672995	0.716854	0.303079
596	N	0.651422	0.679635	0.303129
597	C	0.641307	0.65901	0.257528
598	N	0.65144	0.679549	0.211897
599	C	0.673012	0.716761	0.211884
600	N	0.684319	0.732604	0.25747
601	C	0.92286	0.558789	0.461968
602	N	0.901405	0.596134	0.461918
603	C	0.891296	0.616776	0.507511
604	N	0.901405	0.596212	0.053139
605	C	0.922837	0.558842	0.053168
606	N	0.934154	0.543017	0.507581
607	C	0.590865	0.966974	0.461926
608	N	0.612277	0.929583	0.461895
609	C	0.622362	0.908949	0.507499
610	N	0.612257	0.929552	0.053114
611	C	0.59087	0.966971	0.053119
612	N	0.579563	0.982789	0.507526
613	C	0.590719	0.558927	0.303118
614	N	0.612236	0.596212	0.30315
615	C	0.622332	0.616825	0.257542
616	N	0.612241	0.596211	0.211927
617	C	0.590839	0.558802	0.211923
618	N	0.579477	0.543041	0.257508
619	C	0.922981	0.966912	0.303078
620	N	0.901421	0.929679	0.303129
621	C	0.891308	0.909054	0.257528
622	N	0.901439	0.929593	0.211897
623	C	0.922999	0.966819	0.211884
624	N	0.934303	0.982669	0.25747
625	C	0.575581	0.536447	0.169974
626	N	0.592743	0.512866	0.132527
627	C	0.575582	0.989295	0.095065
628	N	0.541637	0.992839	0.093406
629	C	0.524295	0.512939	0.132452
630	N	0.541633	0.532976	0.171541
631	C	0.938169	0.98935	0.16997
632	N	0.920964	0.512876	0.132534
633	C	0.938115	0.53649	0.095096
634	N	0.972065	0.533033	0.093444
635	C	0.989427	0.51296	0.13247
636	N	0.972112	0.992859	0.171532
637	C	0.938154	0.989524	0.344941
638	N	0.920962	0.512894	0.382518
639	C	0.938123	0.5363	0.420109
640	N	0.972073	0.532847	0.42171
641	C	0.989427	0.512891	0.382595
642	N	0.972102	0.992956	0.343435
643	C	0.575559	0.536332	0.344996
644	N	0.59276	0.512901	0.382507
645	C	0.575605	0.989375	0.420008
646	N	0.541657	0.992849	0.421652
647	C	0.524295	0.512863	0.382585
648	N	0.541613	0.532865	0.343464
649	C	0.825573	0.786487	0.169977
650	N	0.842742	0.762927	0.132524
651	C	0.825588	0.739339	0.095067
652	N	0.791643	0.742862	0.09341
653	C	0.774296	0.762945	0.132458
654	N	0.791627	0.782995	0.171546
655	C	0.688175	0.739306	0.169973
656	N	0.670965	0.762818	0.132532
657	C	0.688109	0.786443	0.095098
658	N	0.722059	0.78301	0.093448
659	C	0.739429	0.762952	0.132476
660	N	0.722118	0.74284	0.171537
661	C	0.68816	0.73948	0.344939
662	N	0.670963	0.762833	0.38252
663	C	0.688117	0.786256	0.420109
664	N	0.722067	0.782827	0.421706
665	C	0.739429	0.762882	0.382589
666	N	0.722108	0.742936	0.34343
667	C	0.82555	0.786376	0.344994
668	N	0.842759	0.762963	0.382509
669	C	0.825611	0.739422	0.420004
670	N	0.791661	0.742872	0.421648
671	C	0.774296	0.762871	0.382579
672	N	0.791607	0.782884	0.343459
673	C	0.672846	0.808728	0.961969
674	N	0.651402	0.846084	0.961915
675	C	0.641292	0.866726	0.007512
676	N	0.651402	0.846162	0.553139
677	C	0.672823	0.808782	0.553166
678	N	0.68414	0.792951	0.007582
679	C	0.840879	0.717033	0.961922
680	N	0.862283	0.679632	0.961895
681	C	0.872365	0.658998	0.0075
682	N	0.862263	0.679604	0.553112
683	C	0.840884	0.717033	0.553116
684	N	0.829579	0.732855	0.007527
685	C	0.840705	0.808986	0.80312
686	N	0.862235	0.846254	0.803151
687	C	0.872336	0.866866	0.757542
688	N	0.86224	0.846256	0.711926
689	C	0.840825	0.808861	0.711922
690	N	0.829461	0.793107	0.757507
691	C	0.672995	0.716855	0.803077
692	N	0.651422	0.679636	0.803128
693	C	0.641307	0.659012	0.757527
694	N	0.65144	0.679547	0.711895
695	C	0.673012	0.716762	0.711883
696	N	0.684319	0.732605	0.757469
697	C	0.92286	0.55879	0.961969
698	N	0.901405	0.596135	0.961915
699	C	0.891296	0.616774	0.007512
700	N	0.901405	0.596209	0.553139
701	C	0.922837	0.558843	0.553166
702	N	0.934154	0.543016	0.007582
703	C	0.590865	0.966975	0.961922
704	N	0.612277	0.929581	0.961895
705	C	0.622362	0.908951	0.0075
706	N	0.612257	0.929553	0.553112
707	C	0.59087	0.966972	0.55312
708	N	0.579563	0.98279	0.007527
709	C	0.590719	0.558928	0.803116
710	N	0.612236	0.59621	0.803151
711	C	0.622332	0.616822	0.757542
712	N	0.612241	0.596208	0.711926
713	C	0.590839	0.558804	0.711922
714	N	0.579477	0.543042	0.757507
715	C	0.922981	0.966913	0.803077
716	N	0.901421	0.92968	0.803128
717	C	0.891308	0.909052	0.757527
718	N	0.901439	0.929591	0.711895
719	C	0.923001	0.96682	0.711883
720	N	0.934303	0.98267	0.757469
721	C	0.575581	0.536444	0.669974
722	N	0.592743	0.512867	0.632527
723	C	0.575582	0.989293	0.595064
724	N	0.541637	0.99284	0.593405
725	C	0.524295	0.512937	0.632453
726	N	0.541633	0.532977	0.67154
727	C	0.938169	0.989351	0.66997
728	N	0.920964	0.512877	0.632534
729	C	0.938115	0.536488	0.595095
730	N	0.972065	0.533031	0.593444
731	C	0.989427	0.512961	0.632468
732	N	0.972112	0.992861	0.671532
733	C	0.938154	0.989525	0.84494
734	N	0.920962	0.512892	0.882515
735	C	0.938123	0.536301	0.92011
736	N	0.972073	0.532848	0.921711
737	C	0.989427	0.512892	0.882593
738	N	0.972102	0.992957	0.843436
739	C	0.575559	0.536334	0.844995
740	N	0.59276	0.512902	0.882508
741	C	0.575605	0.989376	0.920005
742	N	0.541657	0.992851	0.921653
743	C	0.524295	0.512864	0.882585
744	N	0.541613	0.532866	0.843463
745	C	0.825573	0.786488	0.669977
746	N	0.842742	0.762928	0.632523
747	C	0.825588	0.73934	0.595064
748	N	0.791643	0.74286	0.593409
749	C	0.774296	0.762946	0.632457
750	N	0.791627	0.782997	0.671548
751	C	0.688175	0.739307	0.669974
752	N	0.670965	0.762816	0.632531
753	C	0.688109	0.786444	0.595095
754	N	0.722059	0.783011	0.593447
755	C	0.739429	0.762949	0.632476
756	N	0.722118	0.742841	0.671536
757	C	0.68816	0.739481	0.844937
758	N	0.670963	0.762834	0.882519
759	C	0.688117	0.786253	0.920106
760	N	0.722067	0.782825	0.921707
761	C	0.739429	0.762883	0.882589
762	N	0.722108	0.742937	0.843428
763	C	0.82555	0.786377	0.844995
764	N	0.842759	0.762964	0.882508
765	C	0.825611	0.73942	0.920005
766	N	0.791661	0.74287	0.921649
767	C	0.774296	0.762869	0.882577
768	N	0.791607	0.782885	0.843459
769	C	0.172846	0.5195	0.461972
770	N	0.151401	0.556855	0.461918
771	C	0.141293	0.577499	0.507511
772	N	0.151402	0.556931	0.053139
773	C	0.172824	0.519551	0.053167
774	N	0.18414	0.503721	0.507581
775	C	0.340879	0.427805	0.461926
776	N	0.362283	0.390401	0.461895
777	C	0.372365	0.369768	0.507499
778	N	0.362263	0.390374	0.053114
779	C	0.340884	0.427802	0.053118
780	N	0.329579	0.443626	0.507526
781	C	0.340705	0.519756	0.303119
782	N	0.362235	0.557025	0.303151
783	C	0.372335	0.577635	0.257542
784	N	0.36224	0.557024	0.211926
785	C	0.340825	0.519632	0.211922
786	N	0.32946	0.503876	0.257508
787	C	0.172995	0.427624	0.303079
788	N	0.151424	0.390405	0.303129
789	C	0.141307	0.369782	0.257528
790	N	0.15144	0.390318	0.211897
791	C	0.173013	0.427531	0.211884
792	N	0.184319	0.443375	0.25747
793	C	0.422859	0.26956	0.461968
794	N	0.401405	0.306905	0.461918
795	C	0.391295	0.327545	0.507511
796	N	0.401408	0.306981	0.053139
797	C	0.422839	0.269612	0.053168
798	N	0.434154	0.253785	0.507581
799	C	0.090865	0.677744	0.461926
800	N	0.112278	0.640353	0.461895
801	C	0.122362	0.61972	0.507499
802	N	0.112257	0.640322	0.053114
803	C	0.09087	0.677741	0.053119
804	N	0.079564	0.693559	0.507526
805	C	0.090718	0.269698	0.303118
806	N	0.112235	0.30698	0.30315
807	C	0.122333	0.327593	0.257542
808	N	0.112241	0.306979	0.211927
809	C	0.090838	0.269573	0.211923
810	N	0.079477	0.253811	0.257508
811	C	0.422981	0.677682	0.303078
812	N	0.401424	0.640449	0.303129
813	C	0.391308	0.619824	0.257528
814	N	0.401439	0.640363	0.211897
815	C	0.423001	0.677589	0.211884
816	N	0.434303	0.693439	0.25747
817	C	0.07558	0.247215	0.169974
818	N	0.092743	0.223635	0.132527
819	C	0.075583	0.700065	0.095065
820	N	0.041637	0.703609	0.093406
821	C	0.024296	0.223708	0.132452
822	N	0.041632	0.243747	0.171541
823	C	0.438168	0.70012	0.16997
824	N	0.420964	0.223646	0.132534
825	C	0.438115	0.247258	0.095096
826	N	0.472065	0.243802	0.093444
827	C	0.48943	0.22373	0.13247
828	N	0.472114	0.70363	0.171532
829	C	0.438153	0.700294	0.344941
830	N	0.420961	0.223663	0.382518
831	C	0.438122	0.247069	0.420109
832	N	0.472073	0.243618	0.42171
833	C	0.489427	0.223661	0.382595
834	N	0.472102	0.703726	0.343435
835	C	0.075558	0.247103	0.344996
836	N	0.09276	0.223672	0.382507
837	C	0.075605	0.700145	0.420008
838	N	0.041657	0.70362	0.421652
839	C	0.024295	0.223632	0.382585
840	N	0.041612	0.243635	0.343464
841	C	0.325572	0.497258	0.169977
842	N	0.342744	0.473696	0.132524
843	C	0.32559	0.450109	0.095067
844	N	0.291643	0.453631	0.09341
845	C	0.274296	0.473716	0.132458
846	N	0.291626	0.493766	0.171546
847	C	0.188174	0.450076	0.169973
848	N	0.170965	0.473586	0.132532
849	C	0.188109	0.497213	0.095098
850	N	0.22206	0.493781	0.093448
851	C	0.239429	0.473721	0.132476
852	N	0.222119	0.45361	0.171537
853	C	0.18816	0.450251	0.344939
854	N	0.170962	0.473603	0.38252
855	C	0.188117	0.497024	0.420109
856	N	0.222068	0.493596	0.421706
857	C	0.239428	0.473652	0.382589
858	N	0.222107	0.453706	0.34343
859	C	0.325552	0.497146	0.344994
860	N	0.342762	0.473732	0.382509
861	C	0.325613	0.450191	0.420004
862	N	0.291663	0.453641	0.421648
863	C	0.274296	0.47364	0.382579
864	N	0.291606	0.493655	0.343459
865	C	0.172846	0.5195	0.961969
866	N	0.151401	0.556855	0.961915
867	C	0.141293	0.577496	0.007512
868	N	0.151402	0.556931	0.553139
869	C	0.172824	0.519551	0.553166
870	N	0.18414	0.503721	0.007582
871	C	0.340879	0.427804	0.961922
872	N	0.362283	0.390401	0.961895
873	C	0.372365	0.369768	0.0075
874	N	0.362263	0.390373	0.553112
875	C	0.340884	0.427802	0.553116
876	N	0.329579	0.443626	0.007527
877	C	0.340705	0.519756	0.80312
878	N	0.362235	0.557025	0.803151
879	C	0.372335	0.577636	0.757542
880	N	0.36224	0.557024	0.711926
881	C	0.340825	0.519632	0.711922
882	N	0.32946	0.503876	0.757507
883	C	0.172995	0.427624	0.803077
884	N	0.151424	0.390405	0.803128
885	C	0.141307	0.369782	0.757527
886	N	0.15144	0.390318	0.711895
887	C	0.173013	0.427532	0.711883
888	N	0.184319	0.443375	0.757469
889	C	0.422859	0.26956	0.961969
890	N	0.401405	0.306905	0.961915
891	C	0.391295	0.327545	0.007512
892	N	0.401408	0.306981	0.553139
893	C	0.422839	0.269612	0.553166
894	N	0.434154	0.253785	0.007582
895	C	0.090865	0.677745	0.961922
896	N	0.112278	0.640351	0.961895
897	C	0.122362	0.619721	0.0075
898	N	0.112257	0.640323	0.553112
899	C	0.09087	0.677742	0.55312
900	N	0.079564	0.69356	0.007527
901	C	0.090718	0.269698	0.803116
902	N	0.112235	0.306981	0.803151
903	C	0.122333	0.327593	0.757542
904	N	0.112241	0.306979	0.711926
905	C	0.090838	0.269573	0.711922
906	N	0.079477	0.253811	0.757507
907	C	0.422981	0.677683	0.803077
908	N	0.401424	0.64045	0.803128
909	C	0.391308	0.619822	0.757527
910	N	0.401439	0.640361	0.711895
911	C	0.423001	0.67759	0.711883
912	N	0.434303	0.69344	0.757469
913	C	0.07558	0.247215	0.669974
914	N	0.092743	0.223635	0.632527
915	C	0.075583	0.700063	0.595064
916	N	0.041637	0.70361	0.593405
917	C	0.024296	0.223708	0.632453
918	N	0.041632	0.243747	0.67154
919	C	0.438168	0.700121	0.66997
920	N	0.420964	0.223646	0.632534
921	C	0.438115	0.247258	0.595095
922	N	0.472065	0.243802	0.593444
923	C	0.48943	0.22373	0.632468
924	N	0.472114	0.703631	0.671532
925	C	0.438153	0.700295	0.84494
926	N	0.420961	0.223663	0.882515
927	C	0.438122	0.247069	0.92011
928	N	0.472073	0.243618	0.921711
929	C	0.489427	0.223661	0.882593
930	N	0.472102	0.703727	0.843436
931	C	0.075558	0.247103	0.844995
932	N	0.09276	0.223672	0.882508
933	C	0.075605	0.700146	0.920005
934	N	0.041657	0.703621	0.921653
935	C	0.024295	0.223632	0.882585
936	N	0.041612	0.243635	0.843463
937	C	0.325572	0.497258	0.669977
938	N	0.342744	0.473696	0.632523
939	C	0.32559	0.450109	0.595064
940	N	0.291643	0.453631	0.593409
941	C	0.274296	0.473716	0.632457
942	N	0.291626	0.493766	0.671548
943	C	0.188174	0.450076	0.669974
944	N	0.170965	0.473586	0.632531
945	C	0.188109	0.497213	0.595095
946	N	0.22206	0.493781	0.593447
947	C	0.239429	0.473721	0.632476
948	N	0.222119	0.45361	0.671536
949	C	0.18816	0.450251	0.844937
950	N	0.170962	0.473603	0.882519
951	C	0.188117	0.497024	0.920106
952	N	0.222068	0.493596	0.921707
953	C	0.239428	0.473652	0.882589
954	N	0.222107	0.453706	0.843428
955	C	0.325552	0.497146	0.844995
956	N	0.342762	0.473732	0.882508
957	C	0.325613	0.450191	0.920005
958	N	0.291663	0.453641	0.921649
959	C	0.274296	0.47364	0.882577
960	N	0.291606	0.493655	0.843459
961	C	0.172846	0.0195014	0.461972
962	N	0.151401	0.0568564	0.461918
963	C	0.141293	0.0774994	0.507511
964	N	0.151402	0.0569314	0.053139
965	C	0.172824	0.0195514	0.053167
966	N	0.184139	0.00372237	0.507581
967	C	0.340879	0.927805	0.461926
968	N	0.362283	0.890401	0.461895
969	C	0.372365	0.869767	0.507499
970	N	0.362263	0.890373	0.053114
971	C	0.340884	0.927802	0.053118
972	N	0.329579	0.943624	0.507526
973	C	0.340705	0.0197554	0.303119
974	N	0.362235	0.0570264	0.303151
975	C	0.372336	0.0776354	0.257542
976	N	0.36224	0.0570254	0.211926
977	C	0.340825	0.0196344	0.211922
978	N	0.329461	0.00387637	0.257508
979	C	0.172995	0.927624	0.303079
980	N	0.151424	0.890405	0.303129
981	C	0.141307	0.86978	0.257528
982	N	0.15144	0.890319	0.211897
983	C	0.173013	0.927531	0.211884
984	N	0.184319	0.943374	0.25747
985	C	0.422859	0.769559	0.461968
986	N	0.401405	0.806904	0.461918
987	C	0.391296	0.827546	0.507511
988	N	0.401408	0.806982	0.053139
989	C	0.422839	0.769612	0.053168
990	N	0.434154	0.753787	0.507581
991	C	0.090865	0.177744	0.461926
992	N	0.112278	0.140353	0.461895
993	C	0.122363	0.119719	0.507499
994	N	0.112257	0.140322	0.053114
995	C	0.09087	0.177741	0.053119
996	N	0.079564	0.193559	0.507526
997	C	0.090718	0.769697	0.303118
998	N	0.112235	0.806982	0.30315
999	C	0.122333	0.827595	0.257542
1000	N	0.112241	0.806981	0.211927
1001	C	0.090838	0.769572	0.211923
1002	N	0.079476	0.753811	0.257508
1003	C	0.422981	0.177682	0.303078
1004	N	0.401424	0.140449	0.303129
1005	C	0.391308	0.119824	0.257528
1006	N	0.401439	0.140363	0.211897
1007	C	0.423001	0.177589	0.211884
1008	N	0.434303	0.193439	0.25747
1009	C	0.07558	0.747217	0.169974
1010	N	0.092743	0.723636	0.132527
1011	C	0.075583	0.200065	0.095065
1012	N	0.041637	0.203609	0.093406
1013	C	0.024296	0.723709	0.132452
1014	N	0.041632	0.743746	0.171541
1015	C	0.438168	0.20012	0.16997
1016	N	0.420964	0.723646	0.132534
1017	C	0.438115	0.74726	0.095096
1018	N	0.472065	0.743803	0.093444
1019	C	0.48943	0.72373	0.13247
1020	N	0.472115	0.203629	0.171532
1021	C	0.438153	0.200294	0.344941
1022	N	0.420962	0.723664	0.382518
1023	C	0.438123	0.74707	0.420109
1024	N	0.472073	0.743617	0.42171
1025	C	0.489427	0.723661	0.382595
1026	N	0.472102	0.203726	0.343435
1027	C	0.075558	0.747102	0.344996
1028	N	0.09276	0.723671	0.382507
1029	C	0.075605	0.200145	0.420008
1030	N	0.041657	0.203619	0.421652
1031	C	0.024295	0.723633	0.382585
1032	N	0.041612	0.743635	0.343464
1033	C	0.325573	0.997257	0.169977
1034	N	0.342742	0.973697	0.132524
1035	C	0.325591	0.950109	0.095067
1036	N	0.291643	0.953632	0.09341
1037	C	0.274296	0.973715	0.132458
1038	N	0.291626	0.993765	0.171546
1039	C	0.188174	0.950076	0.169973
1040	N	0.170965	0.973588	0.132532
1041	C	0.188109	0.997213	0.095098
1042	N	0.22206	0.99378	0.093448
1043	C	0.239429	0.973722	0.132476
1044	N	0.222119	0.95361	0.171537
1045	C	0.18816	0.95025	0.344939
1046	N	0.170962	0.973603	0.38252
1047	C	0.188117	0.997026	0.420109
1048	N	0.222068	0.993597	0.421706
1049	C	0.239428	0.973652	0.382589
1050	N	0.222107	0.953706	0.34343
1051	C	0.325552	0.997146	0.344994
1052	N	0.342759	0.973733	0.382509
1053	C	0.325613	0.950192	0.420004
1054	N	0.291663	0.953642	0.421648
1055	C	0.274296	0.973641	0.382579
1056	N	0.291606	0.993654	0.343459
1057	C	0.172846	0.0194984	0.961969
1058	N	0.151401	0.0568544	0.961915
1059	C	0.141293	0.0774964	0.007512
1060	N	0.151402	0.0569324	0.553139
1061	C	0.172824	0.0195524	0.553166
1062	N	0.184139	0.00372137	0.007582
1063	C	0.340879	0.927803	0.961922
1064	N	0.362283	0.890402	0.961895
1065	C	0.372365	0.869768	0.0075
1066	N	0.362263	0.890374	0.553112
1067	C	0.340884	0.927803	0.553116
1068	N	0.329579	0.943625	0.007527
1069	C	0.340705	0.0197564	0.80312
1070	N	0.362235	0.0570244	0.803151
1071	C	0.372336	0.0776364	0.757542
1072	N	0.36224	0.0570264	0.711926
1073	C	0.340825	0.0196314	0.711922
1074	N	0.329461	0.00387737	0.757507
1075	C	0.172995	0.927625	0.803077
1076	N	0.151424	0.890406	0.803128
1077	C	0.141307	0.869782	0.757527
1078	N	0.15144	0.890317	0.711895
1079	C	0.173013	0.927532	0.711883
1080	N	0.184319	0.943375	0.757469
1081	C	0.422859	0.76956	0.961969
1082	N	0.401405	0.806905	0.961915
1083	C	0.391296	0.827544	0.007512
1084	N	0.401408	0.806979	0.553139
1085	C	0.422837	0.769613	0.553166
1086	N	0.434154	0.753786	0.007582
1087	C	0.090865	0.177745	0.961922
1088	N	0.112278	0.140351	0.961895
1089	C	0.122363	0.119721	0.0075
1090	N	0.112257	0.140323	0.553112
1091	C	0.09087	0.177742	0.55312
1092	N	0.079564	0.19356	0.007527
1093	C	0.090718	0.769698	0.803116
1094	N	0.112235	0.80698	0.803151
1095	C	0.122333	0.827592	0.757542
1096	N	0.112241	0.806978	0.711926
1097	C	0.090838	0.769574	0.711922
1098	N	0.079476	0.753812	0.757507
1099	C	0.422981	0.177683	0.803077
1100	N	0.401424	0.14045	0.803128
1101	C	0.391308	0.119822	0.757527
1102	N	0.401439	0.140361	0.711895
1103	C	0.423001	0.17759	0.711883
1104	N	0.434303	0.19344	0.757469
1105	C	0.07558	0.747214	0.669974
1106	N	0.092743	0.723637	0.632527
1107	C	0.075583	0.200063	0.595064
1108	N	0.041637	0.20361	0.593405
1109	C	0.024296	0.723707	0.632453
1110	N	0.041632	0.743747	0.67154
1111	C	0.438168	0.200121	0.66997
1112	N	0.420964	0.723647	0.632534
1113	C	0.438115	0.747258	0.595095
1114	N	0.472065	0.743801	0.593444
1115	C	0.48943	0.723731	0.632468
1116	N	0.472115	0.203631	0.671532
1117	C	0.438153	0.200295	0.84494
1118	N	0.420962	0.723662	0.882515
1119	C	0.438123	0.747071	0.92011
1120	N	0.472073	0.743618	0.921711
1121	C	0.489427	0.723662	0.882593
1122	N	0.472102	0.203727	0.843436
1123	C	0.075558	0.747104	0.844995
1124	N	0.09276	0.723672	0.882508
1125	C	0.075605	0.200146	0.920005
1126	N	0.041657	0.203621	0.921653
1127	C	0.024295	0.723634	0.882585
1128	N	0.041612	0.743636	0.843463
1129	C	0.325573	0.997258	0.669977
1130	N	0.342742	0.973698	0.632523
1131	C	0.325591	0.95011	0.595064
1132	N	0.291643	0.95363	0.593409
1133	C	0.274296	0.973716	0.632457
1134	N	0.291626	0.993767	0.671548
1135	C	0.188174	0.950077	0.669974
1136	N	0.170965	0.973586	0.632531
1137	C	0.188109	0.997214	0.595095
1138	N	0.22206	0.993781	0.593447
1139	C	0.239429	0.973719	0.632476
1140	N	0.222119	0.953611	0.671536
1141	C	0.18816	0.950251	0.844937
1142	N	0.170962	0.973604	0.882519
1143	C	0.188117	0.997023	0.920106
1144	N	0.222068	0.993595	0.921707
1145	C	0.239428	0.973653	0.882589
1146	N	0.222107	0.953707	0.843428
1147	C	0.325552	0.997147	0.844995
1148	N	0.342759	0.973734	0.882508
1149	C	0.325613	0.95019	0.920005
1150	N	0.291663	0.95364	0.921649
1151	C	0.274296	0.973639	0.882577
1152	N	0.291606	0.993655	0.843459
1153	C	0.672846	0.5195	0.461972
1154	N	0.651402	0.556855	0.461918
1155	C	0.641292	0.577499	0.507511
1156	N	0.651402	0.556931	0.053139
1157	C	0.672823	0.519551	0.053167
1158	N	0.68414	0.503721	0.507581
1159	C	0.840879	0.427805	0.461926
1160	N	0.862283	0.390401	0.461895
1161	C	0.872365	0.369768	0.507499
1162	N	0.862263	0.390374	0.053114
1163	C	0.840884	0.427802	0.053118
1164	N	0.829579	0.443626	0.507526
1165	C	0.840705	0.519756	0.303119
1166	N	0.862235	0.557025	0.303151
1167	C	0.872336	0.577635	0.257542
1168	N	0.86224	0.557024	0.211926
1169	C	0.840825	0.519632	0.211922
1170	N	0.829461	0.503876	0.257508
1171	C	0.672995	0.427624	0.303079
1172	N	0.651422	0.390405	0.303129
1173	C	0.641307	0.369782	0.257528
1174	N	0.65144	0.390318	0.211897
1175	C	0.673012	0.427531	0.211884
1176	N	0.684319	0.443375	0.25747
1177	C	0.922859	0.26956	0.461968
1178	N	0.901405	0.306905	0.461918
1179	C	0.891296	0.327545	0.507511
1180	N	0.901405	0.306981	0.053139
1181	C	0.922837	0.269612	0.053168
1182	N	0.934154	0.253785	0.507581
1183	C	0.590865	0.677744	0.461926
1184	N	0.612279	0.640353	0.461895
1185	C	0.622362	0.61972	0.507499
1186	N	0.612257	0.640322	0.053114
1187	C	0.59087	0.677741	0.053119
1188	N	0.579563	0.693559	0.507526
1189	C	0.590718	0.269698	0.303118
1190	N	0.612236	0.30698	0.30315
1191	C	0.622334	0.327593	0.257542
1192	N	0.612241	0.306979	0.211927
1193	C	0.590838	0.269573	0.211923
1194	N	0.579477	0.253811	0.257508
1195	C	0.922981	0.677682	0.303078
1196	N	0.901424	0.640449	0.303129
1197	C	0.891308	0.619824	0.257528
1198	N	0.901439	0.640363	0.211897
1199	C	0.923001	0.677589	0.211884
1200	N	0.934303	0.693439	0.25747
1201	C	0.575581	0.247215	0.169974
1202	N	0.592743	0.223635	0.132527
1203	C	0.575582	0.700065	0.095065
1204	N	0.541637	0.703609	0.093406
1205	C	0.524295	0.223708	0.132452
1206	N	0.541632	0.243747	0.171541
1207	C	0.938168	0.70012	0.16997
1208	N	0.920964	0.223646	0.132534
1209	C	0.938115	0.247258	0.095096
1210	N	0.972065	0.243802	0.093444
1211	C	0.98943	0.22373	0.13247
1212	N	0.972112	0.70363	0.171532
1213	C	0.938153	0.700294	0.344941
1214	N	0.920962	0.223663	0.382518
1215	C	0.938123	0.247069	0.420109
1216	N	0.972073	0.243618	0.42171
1217	C	0.989427	0.223661	0.382595
1218	N	0.972102	0.703726	0.343435
1219	C	0.575559	0.247103	0.344996
1220	N	0.59276	0.223672	0.382507
1221	C	0.575604	0.700145	0.420008
1222	N	0.541657	0.70362	0.421652
1223	C	0.524295	0.223632	0.382585
1224	N	0.541612	0.243635	0.343464
1225	C	0.825573	0.497258	0.169977
1226	N	0.842742	0.473696	0.132524
1227	C	0.825591	0.450109	0.095067
1228	N	0.791643	0.453631	0.09341
1229	C	0.774296	0.473716	0.132458
1230	N	0.791626	0.493766	0.171546
1231	C	0.688175	0.450076	0.169973
1232	N	0.670965	0.473586	0.132532
1233	C	0.688109	0.497213	0.095098
1234	N	0.722059	0.493781	0.093448
1235	C	0.739429	0.473721	0.132476
1236	N	0.722118	0.45361	0.171537
1237	C	0.68816	0.450251	0.344939
1238	N	0.670963	0.473603	0.38252
1239	C	0.688116	0.497024	0.420109
1240	N	0.722069	0.493596	0.421706
1241	C	0.739429	0.473652	0.382589
1242	N	0.722108	0.453706	0.34343
1243	C	0.82555	0.497146	0.344994
1244	N	0.842759	0.473732	0.382509
1245	C	0.825611	0.450191	0.420004
1246	N	0.791663	0.453641	0.421648
1247	C	0.774296	0.47364	0.382579
1248	N	0.791606	0.493655	0.343459
1249	C	0.672846	0.5195	0.961969
1250	N	0.651402	0.556855	0.961915
1251	C	0.641292	0.577496	0.007512
1252	N	0.651402	0.556931	0.553139
1253	C	0.672823	0.519551	0.553166
1254	N	0.68414	0.503721	0.007582
1255	C	0.840879	0.427804	0.961922
1256	N	0.862283	0.390401	0.961895
1257	C	0.872365	0.369768	0.0075
1258	N	0.862263	0.390373	0.553112
1259	C	0.840884	0.427802	0.553116
1260	N	0.829579	0.443626	0.007527
1261	C	0.840705	0.519756	0.80312
1262	N	0.862235	0.557025	0.803151
1263	C	0.872336	0.577636	0.757542
1264	N	0.86224	0.557024	0.711926
1265	C	0.840825	0.519632	0.711922
1266	N	0.829461	0.503876	0.757507
1267	C	0.672995	0.427624	0.803077
1268	N	0.651422	0.390405	0.803128
1269	C	0.641307	0.369782	0.757527
1270	N	0.65144	0.390318	0.711895
1271	C	0.673012	0.427532	0.711883
1272	N	0.684319	0.443375	0.757469
1273	C	0.922859	0.26956	0.961969
1274	N	0.901405	0.306905	0.961915
1275	C	0.891296	0.327545	0.007512
1276	N	0.901405	0.306981	0.553139
1277	C	0.922837	0.269612	0.553166
1278	N	0.934154	0.253785	0.007582
1279	C	0.590865	0.677745	0.961922
1280	N	0.612279	0.640351	0.961895
1281	C	0.622362	0.619721	0.0075
1282	N	0.612257	0.640323	0.553112
1283	C	0.59087	0.677742	0.55312
1284	N	0.579563	0.69356	0.007527
1285	C	0.590718	0.269698	0.803116
1286	N	0.612236	0.306981	0.803151
1287	C	0.622334	0.327593	0.757542
1288	N	0.612241	0.306979	0.711926
1289	C	0.590838	0.269573	0.711922
1290	N	0.579477	0.253811	0.757507
1291	C	0.922981	0.677683	0.803077
1292	N	0.901424	0.64045	0.803128
1293	C	0.891308	0.619822	0.757527
1294	N	0.901439	0.640361	0.711895
1295	C	0.923001	0.67759	0.711883
1296	N	0.934303	0.69344	0.757469
1297	C	0.575581	0.247215	0.669974
1298	N	0.592743	0.223635	0.632527
1299	C	0.575582	0.700063	0.595064
1300	N	0.541637	0.70361	0.593405
1301	C	0.524295	0.223708	0.632453
1302	N	0.541632	0.243747	0.67154
1303	C	0.938168	0.700121	0.66997
1304	N	0.920964	0.223646	0.632534
1305	C	0.938115	0.247258	0.595095
1306	N	0.972065	0.243802	0.593444
1307	C	0.98943	0.22373	0.632468
1308	N	0.972112	0.703631	0.671532
1309	C	0.938153	0.700295	0.84494
1310	N	0.920962	0.223663	0.882515
1311	C	0.938123	0.247069	0.92011
1312	N	0.972073	0.243618	0.921711
1313	C	0.989427	0.223661	0.882593
1314	N	0.972102	0.703727	0.843436
1315	C	0.575559	0.247103	0.844995
1316	N	0.59276	0.223672	0.882508
1317	C	0.575604	0.700146	0.920005
1318	N	0.541657	0.703621	0.921653
1319	C	0.524295	0.223632	0.882585
1320	N	0.541612	0.243635	0.843463
1321	C	0.825573	0.497258	0.669977
1322	N	0.842742	0.473696	0.632523
1323	C	0.825591	0.450109	0.595064
1324	N	0.791643	0.453631	0.593409
1325	C	0.774296	0.473716	0.632457
1326	N	0.791626	0.493766	0.671548
1327	C	0.688175	0.450076	0.669974
1328	N	0.670965	0.473586	0.632531
1329	C	0.688109	0.497213	0.595095
1330	N	0.722059	0.493781	0.593447
1331	C	0.739429	0.473721	0.632476
1332	N	0.722118	0.45361	0.671536
1333	C	0.68816	0.450251	0.844937
1334	N	0.670963	0.473603	0.882519
1335	C	0.688116	0.497024	0.920106
1336	N	0.722069	0.493596	0.921707
1337	C	0.739429	0.473652	0.882589
1338	N	0.722108	0.453706	0.843428
1339	C	0.82555	0.497146	0.844995
1340	N	0.842759	0.473732	0.882508
1341	C	0.825611	0.450191	0.920005
1342	N	0.791663	0.453641	0.921649
1343	C	0.774296	0.47364	0.882577
1344	N	0.791606	0.493655	0.843459
1345	C	0.672846	0.0195014	0.461972
1346	N	0.651402	0.0568564	0.461918
1347	C	0.641292	0.0774994	0.507511
1348	N	0.651402	0.0569314	0.053139
1349	C	0.672823	0.0195514	0.053167
1350	N	0.68414	0.00372237	0.507581
1351	C	0.840879	0.927805	0.461926
1352	N	0.862283	0.890401	0.461895
1353	C	0.872365	0.869767	0.507499
1354	N	0.862263	0.890373	0.053114
1355	C	0.840884	0.927802	0.053118
1356	N	0.829579	0.943624	0.507526
1357	C	0.840705	0.0197554	0.303119
1358	N	0.862235	0.0570264	0.303151
1359	C	0.872336	0.0776354	0.257542
1360	N	0.86224	0.0570254	0.211926
1361	C	0.840825	0.0196344	0.211922
1362	N	0.829461	0.00387637	0.257508
1363	C	0.672995	0.927624	0.303079
1364	N	0.651422	0.890405	0.303129
1365	C	0.641307	0.86978	0.257528
1366	N	0.65144	0.890319	0.211897
1367	C	0.673012	0.927531	0.211884
1368	N	0.684319	0.943374	0.25747
1369	C	0.92286	0.769559	0.461968
1370	N	0.901405	0.806904	0.461918
1371	C	0.891296	0.827546	0.507511
1372	N	0.901405	0.806982	0.053139
1373	C	0.922837	0.769612	0.053168
1374	N	0.934154	0.753787	0.507581
1375	C	0.590865	0.177744	0.461926
1376	N	0.612277	0.140353	0.461895
1377	C	0.622362	0.119719	0.507499
1378	N	0.612257	0.140322	0.053114
1379	C	0.59087	0.177741	0.053119
1380	N	0.579563	0.193559	0.507526
1381	C	0.590719	0.769697	0.303118
1382	N	0.612236	0.806982	0.30315
1383	C	0.622332	0.827595	0.257542
1384	N	0.612241	0.806981	0.211927
1385	C	0.590839	0.769572	0.211923
1386	N	0.579477	0.753811	0.257508
1387	C	0.922981	0.177682	0.303078
1388	N	0.901421	0.140449	0.303129
1389	C	0.891308	0.119824	0.257528
1390	N	0.901439	0.140363	0.211897
1391	C	0.922999	0.177589	0.211884
1392	N	0.934303	0.193439	0.25747
1393	C	0.575581	0.747217	0.169974
1394	N	0.592743	0.723636	0.132527
1395	C	0.575582	0.200065	0.095065
1396	N	0.541637	0.203609	0.093406
1397	C	0.524295	0.723709	0.132452
1398	N	0.541633	0.743746	0.171541
1399	C	0.938169	0.20012	0.16997
1400	N	0.920964	0.723646	0.132534
1401	C	0.938115	0.74726	0.095096
1402	N	0.972065	0.743803	0.093444
1403	C	0.989427	0.72373	0.13247
1404	N	0.972112	0.203629	0.171532
1405	C	0.938154	0.200294	0.344941
1406	N	0.920962	0.723664	0.382518
1407	C	0.938123	0.74707	0.420109
1408	N	0.972073	0.743617	0.42171
1409	C	0.989427	0.723661	0.382595
1410	N	0.972102	0.203726	0.343435
1411	C	0.575559	0.747102	0.344996
1412	N	0.59276	0.723671	0.382507
1413	C	0.575605	0.200145	0.420008
1414	N	0.541657	0.203619	0.421652
1415	C	0.524295	0.723633	0.382585
1416	N	0.541613	0.743635	0.343464
1417	C	0.825573	0.997257	0.169977
1418	N	0.842742	0.973697	0.132524
1419	C	0.825588	0.950109	0.095067
1420	N	0.791643	0.953632	0.09341
1421	C	0.774296	0.973715	0.132458
1422	N	0.791627	0.993765	0.171546
1423	C	0.688175	0.950076	0.169973
1424	N	0.670965	0.973588	0.132532
1425	C	0.688109	0.997213	0.095098
1426	N	0.722059	0.99378	0.093448
1427	C	0.739429	0.973722	0.132476
1428	N	0.722118	0.95361	0.171537
1429	C	0.68816	0.95025	0.344939
1430	N	0.670963	0.973603	0.38252
1431	C	0.688117	0.997026	0.420109
1432	N	0.722067	0.993597	0.421706
1433	C	0.739429	0.973652	0.382589
1434	N	0.722108	0.953706	0.34343
1435	C	0.82555	0.997146	0.344994
1436	N	0.842759	0.973733	0.382509
1437	C	0.825611	0.950192	0.420004
1438	N	0.791661	0.953642	0.421648
1439	C	0.774296	0.973641	0.382579
1440	N	0.791607	0.993654	0.343459
1441	C	0.672846	0.0194984	0.961969
1442	N	0.651402	0.0568544	0.961915
1443	C	0.641292	0.0774964	0.007512
1444	N	0.651402	0.0569324	0.553139
1445	C	0.672823	0.0195524	0.553166
1446	N	0.68414	0.00372137	0.007582
1447	C	0.840879	0.927803	0.961922
1448	N	0.862283	0.890402	0.961895
1449	C	0.872365	0.869768	0.0075
1450	N	0.862263	0.890374	0.553112
1451	C	0.840884	0.927803	0.553116
1452	N	0.829579	0.943625	0.007527
1453	C	0.840705	0.0197564	0.80312
1454	N	0.862235	0.0570244	0.803151
1455	C	0.872336	0.0776364	0.757542
1456	N	0.86224	0.0570264	0.711926
1457	C	0.840825	0.0196314	0.711922
1458	N	0.829461	0.00387737	0.757507
1459	C	0.672995	0.927625	0.803077
1460	N	0.651422	0.890406	0.803128
1461	C	0.641307	0.869782	0.757527
1462	N	0.65144	0.890317	0.711895
1463	C	0.673012	0.927532	0.711883
1464	N	0.684319	0.943375	0.757469
1465	C	0.92286	0.76956	0.961969
1466	N	0.901405	0.806905	0.961915
1467	C	0.891296	0.827544	0.007512
1468	N	0.901405	0.806979	0.553139
1469	C	0.922837	0.769613	0.553166
1470	N	0.934154	0.753786	0.007582
1471	C	0.590865	0.177745	0.961922
1472	N	0.612277	0.140351	0.961895
1473	C	0.622362	0.119721	0.0075
1474	N	0.612257	0.140323	0.553112
1475	C	0.59087	0.177742	0.55312
1476	N	0.579563	0.19356	0.007527
1477	C	0.590719	0.769698	0.803116
1478	N	0.612236	0.80698	0.803151
1479	C	0.622332	0.827592	0.757542
1480	N	0.612241	0.806978	0.711926
1481	C	0.590839	0.769574	0.711922
1482	N	0.579477	0.753812	0.757507
1483	C	0.922981	0.177683	0.803077
1484	N	0.901421	0.14045	0.803128
1485	C	0.891308	0.119822	0.757527
1486	N	0.901439	0.140361	0.711895
1487	C	0.923001	0.17759	0.711883
1488	N	0.934303	0.19344	0.757469
1489	C	0.575581	0.747214	0.669974
1490	N	0.592743	0.723637	0.632527
1491	C	0.575582	0.200063	0.595064
1492	N	0.541637	0.20361	0.593405
1493	C	0.524295	0.723707	0.632453
1494	N	0.541633	0.743747	0.67154
1495	C	0.938169	0.200121	0.66997
1496	N	0.920964	0.723647	0.632534
1497	C	0.938115	0.747258	0.595095
1498	N	0.972065	0.743801	0.593444
1499	C	0.989427	0.723731	0.632468
1500	N	0.972112	0.203631	0.671532
1501	C	0.938154	0.200295	0.84494
1502	N	0.920962	0.723662	0.882515
1503	C	0.938123	0.747071	0.92011
1504	N	0.972073	0.743618	0.921711
1505	C	0.989427	0.723662	0.882593
1506	N	0.972102	0.203727	0.843436
1507	C	0.575559	0.747104	0.844995
1508	N	0.59276	0.723672	0.882508
1509	C	0.575605	0.200146	0.920005
1510	N	0.541657	0.203621	0.921653
1511	C	0.524295	0.723634	0.882585
1512	N	0.541613	0.743636	0.843463
1513	C	0.825573	0.997258	0.669977
1514	N	0.842742	0.973698	0.632523
1515	C	0.825588	0.95011	0.595064
1516	N	0.791643	0.95363	0.593409
1517	C	0.774296	0.973716	0.632457
1518	N	0.791627	0.993767	0.671548
1519	C	0.688175	0.950077	0.669974
1520	N	0.670965	0.973586	0.632531
1521	C	0.688109	0.997214	0.595095
1522	N	0.722059	0.993781	0.593447
1523	C	0.739429	0.973719	0.632476
1524	N	0.722118	0.953611	0.671536
1525	C	0.68816	0.950251	0.844937
1526	N	0.670963	0.973604	0.882519
1527	C	0.688117	0.997023	0.920106
1528	N	0.722067	0.993595	0.921707
1529	C	0.739429	0.973653	0.882589
1530	N	0.722108	0.953707	0.843428
1531	C	0.82555	0.997147	0.844995
1532	N	0.842759	0.973734	0.882508
1533	C	0.825611	0.95019	0.920005
1534	N	0.791661	0.95364	0.921649
1535	C	0.774296	0.973639	0.882577
1536	N	0.791607	0.993655	0.843459
