data_C1536H768_2018-02-15_12:33:40
#******************************************
#
# CIF file created by Zeo++
# Zeo++ is an open source package to
# analyze microporous materials
#
#*******************************************

_cell_length_a		31.8358   
_cell_length_b		47.798   
_cell_length_c		29.9782   
_cell_angle_alpha		90   
_cell_angle_beta		90   
_cell_angle_gamma		90   

_symmetry_space_group_name_H-M		'P1'
_symmetry_Int_Tables_number		1
_symmetry_cell_setting		Orthorhombic

loop_
_symmetry_equiv_pos_as_xyz
'+x,+y,+z'

loop_
_atom_site_label
_atom_site_type_symbol
_atom_site_fract_x
_atom_site_fract_y
_atom_site_fract_z
1	C	0.970161	0.180048	0.050272
2	C	0.181701	0.168621	0.036284
3	C	0.178645	0.142356	0.514908
4	C	0.969951	0.129967	0.505752
5	C	0.011366	0.141088	0.517343
6	C	0.008442	0.166265	0.041504
7	H	0.970092	0.111815	0.488579
8	H	0.035033	0.176411	0.051265
9	H	0.155684	0.180693	0.041029
10	C	0.302111	0.342743	0.300055
11	C	0.090586	0.354266	0.286326
12	C	0.093625	0.380594	0.265142
13	C	0.30232	0.393004	0.25607
14	C	0.260899	0.381813	0.267477
15	C	0.263816	0.356503	0.291282
16	H	0.302199	0.411264	0.2392
17	H	0.237233	0.34626	0.300783
18	H	0.116618	0.342203	0.291036
19	C	0.30277	0.180115	0.22278
20	C	0.091272	0.168628	0.236519
21	C	0.0943	0.142342	0.25784
22	C	0.30299	0.129954	0.266999
23	C	0.26157	0.141125	0.255544
24	C	0.26448	0.166375	0.23158
25	H	0.302853	0.111775	0.284092
26	H	0.237907	0.176612	0.222024
27	H	0.117299	0.180695	0.231802
28	C	0.970588	0.342636	0.472988
29	C	0.182078	0.354162	0.486611
30	C	0.179054	0.38046	0.007891
31	C	0.970362	0.392839	0.017069
32	C	0.011786	0.381646	0.005679
33	C	0.008882	0.356356	0.481824
34	H	0.9705	0.411022	0.03415
35	H	0.035449	0.34609	0.472324
36	H	0.156041	0.342115	0.481827
37	C	0.095561	0.430428	0.050609
38	C	0.057045	0.418779	0.037297
39	C	0.05405	0.392364	0.516389
40	C	0.095354	0.379912	0.507439
41	C	0.136784	0.391197	0.518564
42	C	0.133868	0.416683	0.041891
43	H	0.095455	0.361499	0.491008
44	H	0.16043	0.427102	0.050954
45	H	0.031002	0.43087	0.041783
46	C	0.177793	0.092477	0.300868
47	C	0.216297	0.104056	0.287347
48	C	0.219303	0.130427	0.266301
49	C	0.177999	0.142873	0.257323
50	C	0.136572	0.131635	0.268586
51	C	0.139494	0.106239	0.29216
52	H	0.177888	0.161227	0.240716
53	H	0.112928	0.095878	0.301382
54	H	0.242327	0.091951	0.291827
55	C	0.177149	0.430336	0.221791
56	C	0.215626	0.418834	0.235525
57	C	0.218628	0.392515	0.256726
58	C	0.177315	0.380098	0.265768
59	C	0.135894	0.391308	0.254399
60	C	0.138817	0.416624	0.2306
61	H	0.177184	0.361819	0.282591
62	H	0.112253	0.426918	0.221171
63	H	0.241652	0.430924	0.230926
64	C	0.095127	0.092537	0.47169
65	C	0.056665	0.104075	0.485417
66	C	0.053643	0.130421	0.006533
67	C	0.094944	0.142874	0.015495
68	C	0.136365	0.131674	0.004121
69	C	0.133422	0.106321	0.48043
70	H	0.095059	0.161217	0.032142
71	H	0.160006	0.096057	0.47098
72	H	0.03064	0.091969	0.480913
73	C	0.972797	0.20867	0.059447
74	C	0.980433	0.217085	0.103478
75	C	0.00248	0.241981	0.114476
76	C	0.01044	0.260296	0.077325
77	C	0.002914	0.252511	0.031126
78	C	0.986335	0.225648	0.024036
79	H	0.025775	0.278667	0.083593
80	H	0.980894	0.218576	0.492212
81	H	0.973447	0.202914	0.128165
82	C	0.049579	0.314118	0.309235
83	C	0.04219	0.305687	0.353294
84	C	0.020291	0.280744	0.364409
85	C	0.012626	0.262296	0.327345
86	C	0.019897	0.270116	0.281102
87	C	0.036032	0.29709	0.273908
88	H	0.997461	0.243874	0.333666
89	H	0.041306	0.30418	0.242066
90	H	0.049217	0.319882	0.377932
91	C	0.050344	0.208791	0.213906
92	C	0.043199	0.217214	0.16977
93	C	0.021049	0.242063	0.158643
94	C	0.012794	0.260358	0.195767
95	C	0.02025	0.252609	0.241998
96	C	0.03662	0.225719	0.24924
97	H	0.997263	0.278648	0.189449
98	H	0.041822	0.21861	0.28108
99	H	0.050269	0.203026	0.145135
100	C	0.972963	0.313963	0.464095
101	C	0.97988	0.305528	0.419932
102	C	0.001934	0.280656	0.408694
103	C	0.010003	0.262264	0.445755
104	C	0.002731	0.270016	0.492025
105	C	0.986727	0.296994	0.49935
106	H	0.025254	0.243885	0.439333
107	H	0.981661	0.304126	0.031205
108	H	0.972728	0.319731	0.395348
109	C	0.097849	0.459149	0.05913
110	C	0.104414	0.467819	0.103249
111	C	0.126542	0.492701	0.114261
112	C	0.135291	0.510779	0.077013
113	C	0.128119	0.50286	0.03084
114	C	0.11185	0.475926	0.023739
115	H	0.150762	0.029099	0.083283
116	H	0.106891	0.468662	0.491942
117	H	0.097221	0.453726	0.127986
118	C	0.175433	0.063755	0.309385
119	C	0.168511	0.055095	0.353461
120	C	0.146345	0.030212	0.364322
121	C	0.137473	0.012253	0.326971
122	C	0.144926	0.020162	0.280852
123	C	0.161567	0.047007	0.273882
124	H	0.121844	0.493975	0.333119
125	H	0.166733	0.054254	0.24211
126	H	0.175608	0.069181	0.378239
127	C	0.17472	0.459041	0.213017
128	C	0.167571	0.467637	0.168992
129	C	0.145402	0.492536	0.158261
130	C	0.137256	0.510706	0.195546
131	C	0.14475	0.50276	0.241662
132	C	0.161034	0.475805	0.2486
133	H	0.121925	0.029098	0.189425
134	H	0.166317	0.468572	0.280361
135	H	0.174511	0.453513	0.144224
136	C	0.097672	0.063864	0.462897
137	C	0.104988	0.055193	0.418918
138	C	0.127212	0.030318	0.408171
139	C	0.135795	0.012337	0.445564
140	C	0.128204	0.020263	0.491648
141	C	0.111344	0.04707	0.498473
142	H	0.151414	0.494044	0.439497
143	H	0.106074	0.054301	0.030241
144	H	0.098016	0.06925	0.394064
145	C	0.970158	0.180048	0.550271
146	C	0.1817	0.168621	0.536284
147	C	0.178647	0.142356	0.014908
148	C	0.969951	0.129967	0.005749
149	C	0.011366	0.141088	0.017344
150	C	0.008442	0.166265	0.541504
151	H	0.970095	0.111815	0.988576
152	H	0.035031	0.176411	0.551265
153	H	0.155682	0.180693	0.541027
154	C	0.302112	0.342743	0.800056
155	C	0.090587	0.354266	0.786326
156	C	0.093626	0.380594	0.76514
157	C	0.302321	0.393004	0.756067
158	C	0.2609	0.381813	0.767475
159	C	0.263816	0.356503	0.791279
160	H	0.3022	0.411264	0.739198
161	H	0.237233	0.34626	0.800783
162	H	0.116619	0.342203	0.791036
163	C	0.302768	0.180115	0.72278
164	C	0.09127	0.168628	0.73652
165	C	0.094298	0.142342	0.757842
166	C	0.302989	0.129955	0.766998
167	C	0.261568	0.141125	0.755543
168	C	0.264478	0.166375	0.731579
169	H	0.302851	0.111776	0.784094
170	H	0.237906	0.176612	0.722022
171	H	0.117298	0.180695	0.731803
172	C	0.970588	0.342636	0.972988
173	C	0.182077	0.354162	0.986612
174	C	0.179055	0.38046	0.50789
175	C	0.970365	0.392839	0.517066
176	C	0.011787	0.381646	0.505678
177	C	0.008882	0.356356	0.981822
178	H	0.9705	0.411022	0.534149
179	H	0.035448	0.34609	0.972321
180	H	0.15604	0.342115	0.981828
181	C	0.095562	0.430428	0.550608
182	C	0.057045	0.418779	0.537298
183	C	0.054049	0.392364	0.016392
184	C	0.095353	0.379912	0.00744
185	C	0.136783	0.391197	0.018566
186	C	0.133869	0.416683	0.541891
187	H	0.095454	0.361497	0.991008
188	H	0.16043	0.427102	0.550954
189	H	0.031003	0.43087	0.541781
190	C	0.177792	0.092477	0.800866
191	C	0.216296	0.104056	0.787347
192	C	0.219301	0.130427	0.766301
193	C	0.177997	0.142873	0.757325
194	C	0.136571	0.131635	0.768586
195	C	0.139492	0.106238	0.79216
196	H	0.177887	0.161228	0.740719
197	H	0.112926	0.095877	0.80138
198	H	0.242326	0.091951	0.791827
199	C	0.17715	0.430336	0.721789
200	C	0.215627	0.418834	0.735526
201	C	0.218629	0.392515	0.756724
202	C	0.177316	0.380098	0.765768
203	C	0.135895	0.391308	0.754396
204	C	0.138818	0.416624	0.730599
205	H	0.177185	0.361819	0.78259
206	H	0.112254	0.426918	0.721172
207	H	0.241653	0.430924	0.730926
208	C	0.095129	0.092537	0.971691
209	C	0.056666	0.104075	0.985414
210	C	0.053641	0.130421	0.506532
211	C	0.094943	0.142874	0.515495
212	C	0.136364	0.131674	0.50412
213	C	0.133424	0.106321	0.980427
214	H	0.095057	0.161216	0.532144
215	H	0.160007	0.096056	0.97098
216	H	0.030641	0.091969	0.980911
217	C	0.972797	0.20867	0.559447
218	C	0.980433	0.217085	0.603476
219	C	0.00248	0.241981	0.614477
220	C	0.01044	0.260296	0.577324
221	C	0.002914	0.252511	0.531127
222	C	0.986335	0.225648	0.524035
223	H	0.025775	0.278667	0.583592
224	H	0.980894	0.218576	0.992209
225	H	0.973444	0.202914	0.628164
226	C	0.04958	0.314118	0.809233
227	C	0.04219	0.305687	0.853295
228	C	0.020291	0.280744	0.864409
229	C	0.012626	0.262298	0.827346
230	C	0.019897	0.270116	0.781102
231	C	0.036033	0.29709	0.773907
232	H	0.997461	0.243874	0.833667
233	H	0.041307	0.30418	0.742067
234	H	0.049217	0.319882	0.877933
235	C	0.050343	0.20879	0.713906
236	C	0.043198	0.217214	0.669768
237	C	0.021048	0.242063	0.658643
238	C	0.012794	0.260358	0.695767
239	C	0.02025	0.252609	0.741997
240	C	0.036619	0.225719	0.749239
241	H	0.997263	0.278648	0.689449
242	H	0.041821	0.21861	0.781079
243	H	0.050268	0.203025	0.645136
244	C	0.97296	0.313963	0.964095
245	C	0.97988	0.305528	0.919933
246	C	0.001934	0.280656	0.908692
247	C	0.010003	0.262264	0.945755
248	C	0.002728	0.270016	0.992026
249	C	0.986724	0.296994	0.999351
250	H	0.025254	0.243885	0.939331
251	H	0.981661	0.304126	0.531203
252	H	0.972728	0.319731	0.895349
253	C	0.09785	0.459149	0.55913
254	C	0.104415	0.467819	0.603249
255	C	0.126542	0.492701	0.614261
256	C	0.135291	0.510779	0.577013
257	C	0.128119	0.50286	0.53084
258	C	0.11185	0.475926	0.523738
259	H	0.150761	0.0291	0.583281
260	H	0.106891	0.468662	0.991939
261	H	0.097222	0.453726	0.627984
262	C	0.175432	0.063754	0.809386
263	C	0.16851	0.055095	0.853458
264	C	0.146345	0.030211	0.864323
265	C	0.137472	0.012253	0.826972
266	C	0.144925	0.020162	0.780852
267	C	0.161565	0.047007	0.77388
268	H	0.121844	0.493975	0.83312
269	H	0.166731	0.054254	0.74211
270	H	0.175608	0.069181	0.878239
271	C	0.174721	0.459043	0.713016
272	C	0.167571	0.467637	0.66899
273	C	0.145403	0.492536	0.658259
274	C	0.137256	0.510706	0.695546
275	C	0.144751	0.50276	0.74166
276	C	0.161034	0.475805	0.748598
277	H	0.121924	0.029098	0.689425
278	H	0.166317	0.468572	0.780362
279	H	0.174512	0.453513	0.644222
280	C	0.097674	0.063863	0.962894
281	C	0.104988	0.055193	0.918919
282	C	0.127212	0.030318	0.908171
283	C	0.135795	0.012337	0.945562
284	C	0.128205	0.020262	0.991649
285	C	0.111346	0.04707	0.998474
286	H	0.151414	0.494044	0.939494
287	H	0.106072	0.054301	0.530239
288	H	0.098016	0.069249	0.894064
289	C	0.970161	0.680048	0.050273
290	C	0.181701	0.668621	0.036284
291	C	0.178646	0.642356	0.514908
292	C	0.969951	0.629966	0.505752
293	C	0.011366	0.641088	0.517343
294	C	0.008442	0.666265	0.041505
295	H	0.970095	0.611815	0.488579
296	H	0.035032	0.67641	0.051265
297	H	0.155683	0.680692	0.041029
298	C	0.302112	0.842741	0.300056
299	C	0.090587	0.854267	0.286326
300	C	0.093625	0.880594	0.265142
301	C	0.30232	0.893005	0.25607
302	C	0.2609	0.881814	0.267477
303	C	0.263816	0.856503	0.291282
304	H	0.302199	0.911265	0.2392
305	H	0.237233	0.846258	0.300783
306	H	0.116618	0.842203	0.291036
307	C	0.302769	0.680115	0.22278
308	C	0.091271	0.668627	0.236519
309	C	0.094299	0.642341	0.25784
310	C	0.30299	0.629954	0.267
311	C	0.261569	0.641126	0.255545
312	C	0.264479	0.666376	0.23158
313	H	0.302852	0.611775	0.284093
314	H	0.237907	0.67661	0.222024
315	H	0.117298	0.680694	0.231802
316	C	0.970588	0.842634	0.472988
317	C	0.182077	0.85416	0.486611
318	C	0.179054	0.88046	0.007891
319	C	0.970365	0.892839	0.017069
320	C	0.011787	0.881644	0.005679
321	C	0.008882	0.856357	0.481821
322	H	0.9705	0.91102	0.03415
323	H	0.035449	0.846091	0.472324
324	H	0.156041	0.842115	0.481827
325	C	0.095562	0.930427	0.05061
326	C	0.057045	0.918778	0.037298
327	C	0.054049	0.892364	0.516389
328	C	0.095354	0.87991	0.507439
329	C	0.136784	0.891195	0.518564
330	C	0.133869	0.916683	0.041891
331	H	0.095454	0.861497	0.491008
332	H	0.16043	0.927102	0.050955
333	H	0.031002	0.930868	0.041783
334	C	0.177793	0.592477	0.300869
335	C	0.216297	0.604055	0.287347
336	C	0.219302	0.630427	0.266302
337	C	0.177998	0.642873	0.257323
338	C	0.136572	0.631636	0.268586
339	C	0.139493	0.606237	0.29216
340	H	0.177888	0.661227	0.240718
341	H	0.112927	0.595877	0.301382
342	H	0.242327	0.59195	0.291827
343	C	0.177149	0.930335	0.221792
344	C	0.215627	0.918834	0.235526
345	C	0.218629	0.892513	0.256726
346	C	0.177315	0.880096	0.265769
347	C	0.135894	0.891306	0.254399
348	C	0.138818	0.916625	0.2306
349	H	0.177185	0.861819	0.282591
350	H	0.112253	0.926918	0.221171
351	H	0.241652	0.930923	0.230926
352	C	0.095128	0.592536	0.47169
353	C	0.056665	0.604074	0.485417
354	C	0.053642	0.63042	0.006533
355	C	0.094944	0.642873	0.015495
356	C	0.136365	0.631673	0.004121
357	C	0.133423	0.606321	0.48043
358	H	0.095058	0.661217	0.032143
359	H	0.160006	0.596057	0.47098
360	H	0.03064	0.591969	0.480913
361	C	0.972797	0.708668	0.059447
362	C	0.980433	0.717085	0.103478
363	C	0.00248	0.741981	0.114476
364	C	0.01044	0.760296	0.077325
365	C	0.002914	0.752509	0.031126
366	C	0.986335	0.725646	0.024036
367	H	0.025775	0.778667	0.083593
368	H	0.980894	0.718577	0.492212
369	H	0.973447	0.702913	0.128165
370	C	0.04958	0.814118	0.309235
371	C	0.04219	0.805685	0.353294
372	C	0.020291	0.780745	0.364409
373	C	0.012626	0.762296	0.327345
374	C	0.019897	0.770114	0.281102
375	C	0.036032	0.797088	0.273908
376	H	0.997461	0.743873	0.333666
377	H	0.041307	0.804181	0.242066
378	H	0.049217	0.819882	0.377932
379	C	0.050344	0.70879	0.213906
380	C	0.043198	0.717215	0.16977
381	C	0.021049	0.742061	0.158643
382	C	0.012794	0.760359	0.195767
383	C	0.02025	0.75261	0.241998
384	C	0.036619	0.725719	0.24924
385	H	0.997263	0.778646	0.189449
386	H	0.041822	0.718608	0.28108
387	H	0.050268	0.703026	0.145135
388	C	0.972963	0.813962	0.464095
389	C	0.97988	0.805528	0.419932
390	C	0.001934	0.780657	0.408694
391	C	0.010003	0.762265	0.445755
392	C	0.002731	0.770016	0.492025
393	C	0.986724	0.796994	0.49935
394	H	0.025254	0.743885	0.439333
395	H	0.981661	0.804124	0.031205
396	H	0.972728	0.819732	0.395348
397	C	0.09785	0.95915	0.05913
398	C	0.104415	0.96782	0.103249
399	C	0.126542	0.992699	0.114261
400	C	0.135292	0.01078	0.077013
401	C	0.128119	0.002859	0.03084
402	C	0.11185	0.975927	0.02374
403	H	0.150761	0.529098	0.083283
404	H	0.106891	0.968663	0.491942
405	H	0.097221	0.953725	0.127986
406	C	0.175432	0.563754	0.309385
407	C	0.168511	0.555095	0.353461
408	C	0.146345	0.530211	0.364322
409	C	0.137472	0.512252	0.326971
410	C	0.144925	0.520162	0.280852
411	C	0.161566	0.547007	0.273882
412	H	0.121844	0.993975	0.333119
413	H	0.166732	0.554254	0.24211
414	H	0.175608	0.569181	0.378239
415	C	0.174721	0.959041	0.213017
416	C	0.167571	0.967638	0.168993
417	C	0.145403	0.992536	0.158261
418	C	0.137257	0.010704	0.195546
419	C	0.144751	0.00276	0.241662
420	C	0.161034	0.975805	0.2486
421	H	0.121925	0.529098	0.189425
422	H	0.166317	0.968573	0.280361
423	H	0.174512	0.953514	0.144224
424	C	0.097673	0.563863	0.462897
425	C	0.104988	0.555193	0.418918
426	C	0.127212	0.530318	0.408171
427	C	0.135795	0.512338	0.445564
428	C	0.128204	0.520263	0.491651
429	C	0.111345	0.547069	0.498473
430	H	0.151414	0.994045	0.439497
431	H	0.106073	0.554302	0.030241
432	H	0.098016	0.569248	0.394064
433	C	0.970161	0.680048	0.550271
434	C	0.181701	0.668621	0.536284
435	C	0.178646	0.642356	0.014909
436	C	0.969951	0.629966	0.005749
437	C	0.011366	0.641088	0.017344
438	C	0.008442	0.666265	0.541504
439	H	0.970095	0.611815	0.988576
440	H	0.035032	0.67641	0.551265
441	H	0.155683	0.680692	0.541027
442	C	0.302112	0.842741	0.800056
443	C	0.090587	0.854267	0.786326
444	C	0.093625	0.880594	0.76514
445	C	0.30232	0.893005	0.756067
446	C	0.2609	0.881814	0.767475
447	C	0.263816	0.856503	0.791279
448	H	0.3022	0.911265	0.739198
449	H	0.237233	0.846258	0.800783
450	H	0.116619	0.842203	0.791036
451	C	0.302769	0.680115	0.72278
452	C	0.091271	0.668627	0.73652
453	C	0.094299	0.642341	0.757838
454	C	0.302989	0.629954	0.766998
455	C	0.261569	0.641126	0.755543
456	C	0.264479	0.666376	0.731579
457	H	0.302852	0.611775	0.784094
458	H	0.237906	0.67661	0.722022
459	H	0.117298	0.680694	0.731803
460	C	0.970588	0.842634	0.972988
461	C	0.182077	0.85416	0.986612
462	C	0.179054	0.88046	0.50789
463	C	0.970365	0.892839	0.517066
464	C	0.011787	0.881644	0.505678
465	C	0.008882	0.856357	0.981822
466	H	0.9705	0.91102	0.534149
467	H	0.035448	0.846091	0.972321
468	H	0.156041	0.842115	0.981828
469	C	0.095562	0.930427	0.550608
470	C	0.057045	0.918778	0.537298
471	C	0.054049	0.892364	0.016392
472	C	0.095353	0.87991	0.00744
473	C	0.136784	0.891195	0.018567
474	C	0.133869	0.916683	0.541888
475	H	0.095454	0.861497	0.991005
476	H	0.16043	0.927102	0.550954
477	H	0.031002	0.930868	0.541781
478	C	0.177793	0.592477	0.800866
479	C	0.216296	0.604055	0.787347
480	C	0.219302	0.630427	0.766301
481	C	0.177998	0.642873	0.757321
482	C	0.136572	0.631636	0.768586
483	C	0.139493	0.606237	0.79216
484	H	0.177888	0.661227	0.740716
485	H	0.112927	0.595877	0.80138
486	H	0.242326	0.59195	0.791827
487	C	0.177149	0.930335	0.721789
488	C	0.215627	0.918834	0.735526
489	C	0.218629	0.892513	0.756724
490	C	0.177315	0.880096	0.765768
491	C	0.135895	0.891306	0.754396
492	C	0.138818	0.916625	0.730599
493	H	0.177185	0.861819	0.78259
494	H	0.112253	0.926918	0.721168
495	H	0.241652	0.930923	0.730926
496	C	0.095128	0.592536	0.971691
497	C	0.056665	0.604074	0.985414
498	C	0.053642	0.63042	0.506532
499	C	0.094943	0.642873	0.515495
500	C	0.136365	0.631673	0.50412
501	C	0.133423	0.606321	0.980427
502	H	0.095058	0.661217	0.532141
503	H	0.160006	0.596057	0.97098
504	H	0.03064	0.591969	0.980911
505	C	0.972797	0.708668	0.559447
506	C	0.980433	0.717085	0.603476
507	C	0.00248	0.741981	0.614477
508	C	0.01044	0.760296	0.577324
509	C	0.002914	0.752509	0.531127
510	C	0.986335	0.725646	0.524035
511	H	0.025775	0.778667	0.583592
512	H	0.980894	0.718577	0.992209
513	H	0.973447	0.702913	0.628164
514	C	0.04958	0.814118	0.809233
515	C	0.04219	0.805685	0.853295
516	C	0.020291	0.780745	0.864409
517	C	0.012626	0.762296	0.827346
518	C	0.019897	0.770114	0.781102
519	C	0.036032	0.797088	0.773907
520	H	0.997461	0.743875	0.833667
521	H	0.041307	0.804181	0.742067
522	H	0.049217	0.819882	0.877933
523	C	0.050344	0.70879	0.713906
524	C	0.043198	0.717215	0.669768
525	C	0.021049	0.742061	0.658643
526	C	0.012794	0.760359	0.695767
527	C	0.02025	0.75261	0.741997
528	C	0.036619	0.725719	0.749239
529	H	0.997263	0.778646	0.689449
530	H	0.041822	0.718608	0.781079
531	H	0.050268	0.703026	0.645136
532	C	0.972963	0.813962	0.964095
533	C	0.97988	0.805528	0.919933
534	C	0.001934	0.780657	0.908692
535	C	0.010003	0.762265	0.945755
536	C	0.002728	0.770016	0.992026
537	C	0.986724	0.796994	0.999351
538	H	0.025254	0.743885	0.939331
539	H	0.981661	0.804124	0.531203
540	H	0.972728	0.819732	0.895349
541	C	0.09785	0.95915	0.55913
542	C	0.104415	0.96782	0.603246
543	C	0.126542	0.992699	0.614261
544	C	0.135291	0.01078	0.577013
545	C	0.128118	0.002859	0.53084
546	C	0.11185	0.975927	0.523738
547	H	0.150761	0.5291	0.583281
548	H	0.106891	0.968663	0.991942
549	H	0.097221	0.953725	0.627984
550	C	0.175432	0.563754	0.809386
551	C	0.168511	0.555095	0.853458
552	C	0.146345	0.530211	0.864323
553	C	0.137473	0.512252	0.826972
554	C	0.144925	0.520162	0.780852
555	C	0.161566	0.547007	0.77388
556	H	0.121844	0.993973	0.83312
557	H	0.166732	0.554254	0.74211
558	H	0.175608	0.569181	0.878239
559	C	0.174721	0.959041	0.713016
560	C	0.167571	0.967638	0.66899
561	C	0.145402	0.992536	0.658259
562	C	0.137256	0.010704	0.695546
563	C	0.14475	0.00276	0.74166
564	C	0.161034	0.975805	0.748598
565	H	0.121925	0.529098	0.689425
566	H	0.166317	0.968573	0.780362
567	H	0.174512	0.953514	0.644222
568	C	0.097673	0.563863	0.962894
569	C	0.104988	0.555193	0.918919
570	C	0.127212	0.530318	0.908171
571	C	0.135795	0.512336	0.945562
572	C	0.128204	0.520263	0.991649
573	C	0.111345	0.547069	0.998474
574	H	0.151414	0.994045	0.939494
575	H	0.106073	0.554302	0.530239
576	H	0.098016	0.569248	0.894064
577	C	0.220162	0.180048	0.050272
578	C	0.431702	0.168621	0.036284
579	C	0.428646	0.142356	0.514908
580	C	0.219952	0.129967	0.505752
581	C	0.261366	0.141088	0.517343
582	C	0.258444	0.166265	0.041504
583	H	0.220094	0.111815	0.488579
584	H	0.285033	0.176411	0.051265
585	H	0.405684	0.180693	0.041029
586	C	0.55211	0.342743	0.300055
587	C	0.340585	0.354266	0.286326
588	C	0.343625	0.380594	0.265142
589	C	0.552321	0.393004	0.25607
590	C	0.510899	0.381813	0.267477
591	C	0.513814	0.356503	0.291282
592	H	0.552198	0.411264	0.2392
593	H	0.487231	0.34626	0.300783
594	H	0.366618	0.342203	0.291036
595	C	0.55277	0.180115	0.22278
596	C	0.341273	0.168628	0.236519
597	C	0.344301	0.142342	0.25784
598	C	0.55299	0.129954	0.266999
599	C	0.511568	0.141125	0.255544
600	C	0.51448	0.166375	0.23158
601	H	0.552852	0.111775	0.284092
602	H	0.487906	0.176612	0.222024
603	H	0.3673	0.180695	0.231802
604	C	0.220589	0.342636	0.472988
605	C	0.432079	0.354162	0.486611
606	C	0.429054	0.38046	0.007891
607	C	0.220365	0.392839	0.017069
608	C	0.261786	0.381646	0.005679
609	C	0.258884	0.356356	0.481824
610	H	0.220501	0.411022	0.03415
611	H	0.285449	0.34609	0.472324
612	H	0.406042	0.342115	0.481827
613	C	0.34556	0.430428	0.050609
614	C	0.307044	0.418779	0.037297
615	C	0.304049	0.392364	0.516389
616	C	0.345353	0.379912	0.507439
617	C	0.386784	0.391197	0.518564
618	C	0.383869	0.416683	0.041891
619	H	0.345453	0.361499	0.491008
620	H	0.41043	0.427102	0.050954
621	H	0.281002	0.43087	0.041783
622	C	0.427795	0.092477	0.300868
623	C	0.466298	0.104056	0.287347
624	C	0.469301	0.130427	0.266301
625	C	0.427999	0.142873	0.257323
626	C	0.386571	0.131635	0.268586
627	C	0.389495	0.106239	0.29216
628	H	0.427889	0.161227	0.240716
629	H	0.362927	0.095878	0.301382
630	H	0.492326	0.091951	0.291827
631	C	0.427147	0.430336	0.221791
632	C	0.465626	0.418834	0.235525
633	C	0.468629	0.392515	0.256726
634	C	0.427314	0.380098	0.265768
635	C	0.385895	0.391308	0.254399
636	C	0.388816	0.416624	0.2306
637	H	0.427185	0.361819	0.282591
638	H	0.362252	0.426918	0.221171
639	H	0.49165	0.430924	0.230926
640	C	0.345127	0.092537	0.47169
641	C	0.306664	0.104075	0.485417
642	C	0.303643	0.130421	0.006533
643	C	0.344945	0.142874	0.015495
644	C	0.386366	0.131674	0.004121
645	C	0.383423	0.106321	0.48043
646	H	0.345058	0.161217	0.032142
647	H	0.410006	0.096057	0.47098
648	H	0.28064	0.091969	0.480913
649	C	0.222798	0.20867	0.059447
650	C	0.230434	0.217085	0.103478
651	C	0.252481	0.241981	0.114476
652	C	0.260441	0.260296	0.077325
653	C	0.252915	0.252511	0.031126
654	C	0.236336	0.225648	0.024036
655	H	0.275774	0.278667	0.083593
656	H	0.230895	0.218576	0.492212
657	H	0.223448	0.202914	0.128165
658	C	0.299579	0.314118	0.309235
659	C	0.29219	0.305687	0.353294
660	C	0.270291	0.280744	0.364409
661	C	0.262626	0.262296	0.327345
662	C	0.269897	0.270116	0.281102
663	C	0.286032	0.29709	0.273908
664	H	0.247461	0.243874	0.333666
665	H	0.291306	0.30418	0.242066
666	H	0.299217	0.319882	0.377932
667	C	0.300344	0.208791	0.213906
668	C	0.293199	0.217214	0.16977
669	C	0.271049	0.242063	0.158643
670	C	0.262794	0.260358	0.195767
671	C	0.27025	0.252609	0.241998
672	C	0.286619	0.225719	0.24924
673	H	0.247263	0.278648	0.189449
674	H	0.291822	0.21861	0.28108
675	H	0.300269	0.203026	0.145135
676	C	0.222963	0.313963	0.464095
677	C	0.22988	0.305528	0.419932
678	C	0.251933	0.280656	0.408694
679	C	0.260003	0.262264	0.445755
680	C	0.252731	0.270016	0.492025
681	C	0.236727	0.296994	0.49935
682	H	0.275254	0.243885	0.439333
683	H	0.23166	0.304126	0.031205
684	H	0.222728	0.319731	0.395348
685	C	0.34785	0.459149	0.05913
686	C	0.354415	0.467819	0.103249
687	C	0.376541	0.492701	0.114261
688	C	0.385292	0.510779	0.077013
689	C	0.378118	0.50286	0.03084
690	C	0.36185	0.475926	0.023739
691	H	0.400762	0.029099	0.083283
692	H	0.35689	0.468662	0.491942
693	H	0.347219	0.453726	0.127986
694	C	0.425432	0.063755	0.309385
695	C	0.418509	0.055095	0.353461
696	C	0.396346	0.030212	0.364322
697	C	0.387472	0.012253	0.326971
698	C	0.394926	0.020162	0.280852
699	C	0.411568	0.047007	0.273882
700	H	0.371845	0.493975	0.333119
701	H	0.416732	0.054254	0.24211
702	H	0.425608	0.069181	0.378239
703	C	0.424719	0.459041	0.213017
704	C	0.41757	0.467637	0.168992
705	C	0.395403	0.492536	0.158261
706	C	0.387255	0.510706	0.195546
707	C	0.39475	0.502762	0.241662
708	C	0.411034	0.475805	0.2486
709	H	0.371927	0.029098	0.189425
710	H	0.416317	0.468572	0.280361
711	H	0.424512	0.453513	0.144224
712	C	0.347671	0.063864	0.462897
713	C	0.354987	0.055193	0.418918
714	C	0.37721	0.030318	0.408171
715	C	0.385795	0.012337	0.445564
716	C	0.378203	0.020263	0.491648
717	C	0.361344	0.04707	0.498473
718	H	0.401412	0.494044	0.439497
719	H	0.356074	0.054301	0.030241
720	H	0.348017	0.06925	0.394064
721	C	0.22016	0.180048	0.550271
722	C	0.431699	0.168621	0.536284
723	C	0.428646	0.142356	0.014908
724	C	0.219953	0.129967	0.005749
725	C	0.261367	0.141089	0.017344
726	C	0.258443	0.166265	0.541504
727	H	0.220096	0.111815	0.988576
728	H	0.285031	0.176411	0.551265
729	H	0.405681	0.180693	0.541027
730	C	0.552114	0.342743	0.800056
731	C	0.340588	0.354266	0.786326
732	C	0.343625	0.380594	0.76514
733	C	0.552321	0.393004	0.756067
734	C	0.510899	0.381813	0.767475
735	C	0.513817	0.356503	0.791279
736	H	0.552198	0.411264	0.739198
737	H	0.487234	0.34626	0.800783
738	H	0.366618	0.342203	0.791036
739	C	0.552767	0.180115	0.72278
740	C	0.341269	0.168628	0.73652
741	C	0.344297	0.142342	0.757842
742	C	0.552987	0.129955	0.766998
743	C	0.511568	0.141125	0.755543
744	C	0.514477	0.166375	0.731579
745	H	0.552852	0.111776	0.784094
746	H	0.487906	0.176612	0.722022
747	H	0.367297	0.180695	0.731803
748	C	0.220588	0.342636	0.972988
749	C	0.432076	0.354162	0.986612
750	C	0.429054	0.38046	0.50789
751	C	0.220365	0.392839	0.517066
752	C	0.261787	0.381646	0.505678
753	C	0.258883	0.356356	0.981822
754	H	0.220502	0.411022	0.534149
755	H	0.285448	0.34609	0.972321
756	H	0.406039	0.342115	0.981828
757	C	0.345563	0.430428	0.550608
758	C	0.307045	0.418779	0.537298
759	C	0.304048	0.392364	0.016392
760	C	0.345353	0.379912	0.00744
761	C	0.386784	0.391197	0.018566
762	C	0.383869	0.416683	0.541891
763	H	0.345453	0.361497	0.991008
764	H	0.41043	0.427102	0.550954
765	H	0.281002	0.43087	0.541781
766	C	0.427791	0.092477	0.800866
767	C	0.466295	0.104056	0.787347
768	C	0.469301	0.130427	0.766301
769	C	0.427996	0.142873	0.757325
770	C	0.386571	0.131635	0.768586
771	C	0.389492	0.106238	0.79216
772	H	0.427886	0.161228	0.740719
773	H	0.362927	0.095877	0.80138
774	H	0.492326	0.091951	0.791827
775	C	0.427151	0.430336	0.721789
776	C	0.465626	0.418834	0.735526
777	C	0.468629	0.392515	0.756724
778	C	0.427314	0.380098	0.765768
779	C	0.385895	0.391308	0.754396
780	C	0.38882	0.416624	0.730599
781	H	0.427185	0.361819	0.78259
782	H	0.362252	0.426918	0.721172
783	H	0.491653	0.430924	0.730926
784	C	0.34513	0.092537	0.971691
785	C	0.306666	0.104075	0.985414
786	C	0.303641	0.130421	0.506532
787	C	0.344941	0.142874	0.515495
788	C	0.386363	0.131674	0.50412
789	C	0.383423	0.106321	0.980427
790	H	0.345058	0.161216	0.532144
791	H	0.410006	0.096056	0.97098
792	H	0.280641	0.091969	0.980911
793	C	0.222796	0.20867	0.559447
794	C	0.230432	0.217085	0.603476
795	C	0.25248	0.241981	0.614477
796	C	0.260441	0.260296	0.577324
797	C	0.252915	0.252511	0.531127
798	C	0.236335	0.225648	0.524035
799	H	0.275775	0.278667	0.583592
800	H	0.230896	0.218576	0.992209
801	H	0.223446	0.202914	0.628164
802	C	0.29958	0.314118	0.809236
803	C	0.29219	0.305687	0.853295
804	C	0.270291	0.280744	0.864409
805	C	0.262626	0.262298	0.827346
806	C	0.269897	0.270116	0.781102
807	C	0.286032	0.29709	0.773907
808	H	0.24746	0.243874	0.833667
809	H	0.291307	0.30418	0.742067
810	H	0.299217	0.319882	0.877933
811	C	0.300342	0.20879	0.713906
812	C	0.293197	0.217214	0.669768
813	C	0.271048	0.242063	0.658643
814	C	0.262794	0.260358	0.695767
815	C	0.27025	0.252609	0.741997
816	C	0.286618	0.225719	0.749239
817	H	0.247263	0.278648	0.689449
818	H	0.291821	0.21861	0.781079
819	H	0.300268	0.203025	0.645136
820	C	0.222962	0.313963	0.964095
821	C	0.22988	0.305528	0.919933
822	C	0.251933	0.280656	0.908692
823	C	0.260004	0.262264	0.945755
824	C	0.252731	0.270016	0.992026
825	C	0.236726	0.296994	0.999351
826	H	0.275254	0.243885	0.939331
827	H	0.231661	0.304126	0.531203
828	H	0.222728	0.319731	0.895349
829	C	0.34785	0.459149	0.55913
830	C	0.354415	0.467819	0.603249
831	C	0.376541	0.492701	0.614261
832	C	0.385292	0.510779	0.577013
833	C	0.378118	0.50286	0.53084
834	C	0.36185	0.475926	0.523738
835	H	0.400759	0.0291	0.583281
836	H	0.35689	0.468662	0.991939
837	H	0.347222	0.453726	0.627984
838	C	0.425432	0.063754	0.809386
839	C	0.418509	0.055095	0.853458
840	C	0.396346	0.030211	0.864323
841	C	0.387472	0.012253	0.826972
842	C	0.394926	0.020162	0.780852
843	C	0.411564	0.047007	0.77388
844	H	0.371845	0.493975	0.83312
845	H	0.416732	0.054254	0.74211
846	H	0.425608	0.069181	0.878239
847	C	0.424719	0.459043	0.713016
848	C	0.41757	0.467637	0.66899
849	C	0.395403	0.492536	0.658259
850	C	0.387255	0.510706	0.695546
851	C	0.39475	0.50276	0.74166
852	C	0.411034	0.475805	0.748598
853	H	0.371924	0.029098	0.689425
854	H	0.416317	0.468572	0.780362
855	H	0.424512	0.453513	0.644222
856	C	0.347674	0.063863	0.962894
857	C	0.354987	0.055193	0.918919
858	C	0.37721	0.030318	0.908171
859	C	0.385795	0.012337	0.945562
860	C	0.378206	0.020262	0.991649
861	C	0.361344	0.04707	0.998474
862	H	0.401412	0.494044	0.939494
863	H	0.35607	0.054301	0.530239
864	H	0.348017	0.069249	0.894064
865	C	0.220161	0.680048	0.050273
866	C	0.431699	0.668621	0.036284
867	C	0.428646	0.642356	0.514908
868	C	0.219952	0.629966	0.505752
869	C	0.261367	0.641088	0.517343
870	C	0.258443	0.666265	0.041505
871	H	0.220095	0.611815	0.488579
872	H	0.285032	0.67641	0.051265
873	H	0.405684	0.680692	0.041029
874	C	0.55211	0.842741	0.300056
875	C	0.340585	0.854267	0.286326
876	C	0.343625	0.880594	0.265142
877	C	0.552321	0.893005	0.25607
878	C	0.510899	0.881814	0.267477
879	C	0.513817	0.856503	0.291282
880	H	0.552198	0.911265	0.2392
881	H	0.487234	0.846258	0.300783
882	H	0.366618	0.842203	0.291036
883	C	0.55277	0.680115	0.22278
884	C	0.341273	0.668627	0.236519
885	C	0.344297	0.642341	0.25784
886	C	0.55299	0.629954	0.267
887	C	0.511568	0.641126	0.255545
888	C	0.51448	0.666376	0.23158
889	H	0.552852	0.611775	0.284093
890	H	0.487906	0.67661	0.222024
891	H	0.367297	0.680694	0.231802
892	C	0.220588	0.842634	0.472988
893	C	0.432076	0.85416	0.486611
894	C	0.429054	0.88046	0.007891
895	C	0.220365	0.892839	0.017069
896	C	0.261786	0.881644	0.005679
897	C	0.258883	0.856357	0.481821
898	H	0.220502	0.91102	0.03415
899	H	0.285448	0.846091	0.472324
900	H	0.406039	0.842115	0.481827
901	C	0.34556	0.930427	0.05061
902	C	0.307044	0.918778	0.037298
903	C	0.304049	0.892364	0.516389
904	C	0.345353	0.87991	0.507439
905	C	0.386784	0.891195	0.518564
906	C	0.383869	0.916683	0.041891
907	H	0.345453	0.861497	0.491008
908	H	0.41043	0.927102	0.050955
909	H	0.281002	0.930868	0.041783
910	C	0.427791	0.592477	0.300869
911	C	0.466295	0.604055	0.287347
912	C	0.469301	0.630427	0.266302
913	C	0.427999	0.642873	0.257323
914	C	0.386571	0.631636	0.268586
915	C	0.389492	0.606237	0.29216
916	H	0.427889	0.661227	0.240718
917	H	0.362927	0.595877	0.301382
918	H	0.492326	0.59195	0.291827
919	C	0.427151	0.930335	0.221792
920	C	0.465626	0.918834	0.235526
921	C	0.468629	0.892513	0.256726
922	C	0.427314	0.880096	0.265769
923	C	0.385895	0.891306	0.254399
924	C	0.388816	0.916625	0.2306
925	H	0.427185	0.861819	0.282591
926	H	0.362252	0.926918	0.221171
927	H	0.491653	0.930923	0.230926
928	C	0.345127	0.592536	0.47169
929	C	0.306665	0.604074	0.485417
930	C	0.303642	0.63042	0.006533
931	C	0.344945	0.642873	0.015495
932	C	0.386363	0.631673	0.004121
933	C	0.383423	0.606321	0.48043
934	H	0.345058	0.661217	0.032143
935	H	0.410006	0.596057	0.47098
936	H	0.28064	0.591969	0.480913
937	C	0.222797	0.708668	0.059447
938	C	0.230433	0.717085	0.103478
939	C	0.25248	0.741981	0.114476
940	C	0.260441	0.760296	0.077325
941	C	0.252915	0.752509	0.031126
942	C	0.236336	0.725646	0.024036
943	H	0.275774	0.778667	0.083593
944	H	0.230895	0.718577	0.492212
945	H	0.223447	0.702913	0.128165
946	C	0.299579	0.814118	0.309235
947	C	0.29219	0.805685	0.353294
948	C	0.270291	0.780745	0.364409
949	C	0.262626	0.762296	0.327345
950	C	0.269897	0.770114	0.281102
951	C	0.286032	0.797088	0.273908
952	H	0.247461	0.743873	0.333666
953	H	0.291306	0.804181	0.242066
954	H	0.299217	0.819882	0.377932
955	C	0.300343	0.70879	0.213906
956	C	0.293198	0.717215	0.16977
957	C	0.271048	0.742061	0.158643
958	C	0.262794	0.760359	0.195767
959	C	0.27025	0.75261	0.241998
960	C	0.286619	0.725719	0.24924
961	H	0.247263	0.778646	0.189449
962	H	0.291822	0.718608	0.28108
963	H	0.300268	0.703026	0.145135
964	C	0.222963	0.813962	0.464095
965	C	0.22988	0.805528	0.419932
966	C	0.251933	0.780657	0.408694
967	C	0.260004	0.762265	0.445755
968	C	0.252731	0.770016	0.492025
969	C	0.236727	0.796994	0.49935
970	H	0.275254	0.743885	0.439333
971	H	0.231661	0.804124	0.031205
972	H	0.222728	0.819732	0.395348
973	C	0.34785	0.95915	0.05913
974	C	0.354415	0.96782	0.103249
975	C	0.376541	0.992699	0.114261
976	C	0.385292	0.01078	0.077013
977	C	0.378118	0.002859	0.03084
978	C	0.36185	0.975927	0.02374
979	H	0.400762	0.529098	0.083283
980	H	0.35689	0.968663	0.491942
981	H	0.347222	0.953725	0.127986
982	C	0.425432	0.563754	0.309385
983	C	0.418509	0.555095	0.353461
984	C	0.396346	0.530211	0.364322
985	C	0.387472	0.512252	0.326971
986	C	0.394926	0.520162	0.280852
987	C	0.411564	0.547007	0.273882
988	H	0.371845	0.993975	0.333119
989	H	0.416732	0.554254	0.24211
990	H	0.425608	0.569181	0.378239
991	C	0.424719	0.959041	0.213017
992	C	0.41757	0.967638	0.168993
993	C	0.395403	0.992536	0.158261
994	C	0.387255	0.010704	0.195546
995	C	0.39475	0.00276	0.241662
996	C	0.411034	0.975805	0.2486
997	H	0.371924	0.529098	0.189425
998	H	0.416317	0.968573	0.280361
999	H	0.424512	0.953514	0.144224
1000	C	0.347671	0.563863	0.462897
1001	C	0.354987	0.555193	0.418918
1002	C	0.37721	0.530318	0.408171
1003	C	0.385795	0.512338	0.445564
1004	C	0.378203	0.520263	0.491651
1005	C	0.361344	0.547069	0.498473
1006	H	0.401412	0.994045	0.439497
1007	H	0.356074	0.554302	0.030241
1008	H	0.348017	0.569248	0.394064
1009	C	0.220161	0.680048	0.550271
1010	C	0.431699	0.668621	0.536284
1011	C	0.428646	0.642356	0.014909
1012	C	0.219952	0.629966	0.005749
1013	C	0.261367	0.641088	0.017344
1014	C	0.258443	0.666265	0.541504
1015	H	0.220095	0.611815	0.988576
1016	H	0.285032	0.67641	0.551265
1017	H	0.405681	0.680692	0.541027
1018	C	0.55211	0.842741	0.800056
1019	C	0.340585	0.854267	0.786326
1020	C	0.343625	0.880594	0.76514
1021	C	0.552321	0.893005	0.756067
1022	C	0.510899	0.881814	0.767475
1023	C	0.513817	0.856503	0.791279
1024	H	0.552198	0.911265	0.739198
1025	H	0.487234	0.846258	0.800783
1026	H	0.366618	0.842203	0.791036
1027	C	0.55277	0.680115	0.72278
1028	C	0.341269	0.668627	0.73652
1029	C	0.344297	0.642341	0.757838
1030	C	0.55299	0.629954	0.766998
1031	C	0.511568	0.641126	0.755543
1032	C	0.51448	0.666376	0.731579
1033	H	0.552852	0.611775	0.784094
1034	H	0.487906	0.67661	0.722022
1035	H	0.367297	0.680694	0.731803
1036	C	0.220588	0.842634	0.972988
1037	C	0.432076	0.85416	0.986612
1038	C	0.429054	0.88046	0.50789
1039	C	0.220365	0.892839	0.517066
1040	C	0.261787	0.881644	0.505678
1041	C	0.258883	0.856357	0.981822
1042	H	0.220502	0.91102	0.534149
1043	H	0.285448	0.846091	0.972321
1044	H	0.406039	0.842115	0.981828
1045	C	0.345563	0.930427	0.550608
1046	C	0.307045	0.918778	0.537298
1047	C	0.304049	0.892364	0.016392
1048	C	0.345353	0.87991	0.00744
1049	C	0.386784	0.891195	0.018567
1050	C	0.383869	0.916683	0.541888
1051	H	0.345453	0.861497	0.991005
1052	H	0.41043	0.927102	0.550954
1053	H	0.281002	0.930868	0.541781
1054	C	0.427791	0.592477	0.800866
1055	C	0.466295	0.604055	0.787347
1056	C	0.469301	0.630427	0.766301
1057	C	0.427999	0.642873	0.757321
1058	C	0.386571	0.631636	0.768586
1059	C	0.389492	0.606237	0.79216
1060	H	0.427889	0.661227	0.740716
1061	H	0.362927	0.595877	0.80138
1062	H	0.492326	0.59195	0.791827
1063	C	0.427151	0.930335	0.721789
1064	C	0.465626	0.918834	0.735526
1065	C	0.468629	0.892513	0.756724
1066	C	0.427314	0.880096	0.765768
1067	C	0.385895	0.891306	0.754396
1068	C	0.388816	0.916625	0.730599
1069	H	0.427185	0.861819	0.78259
1070	H	0.362252	0.926918	0.721168
1071	H	0.491653	0.930923	0.730926
1072	C	0.345127	0.592536	0.971691
1073	C	0.306665	0.604074	0.985414
1074	C	0.303642	0.63042	0.506532
1075	C	0.344945	0.642873	0.515495
1076	C	0.386363	0.631673	0.50412
1077	C	0.383423	0.606321	0.980427
1078	H	0.345058	0.661217	0.532141
1079	H	0.410006	0.596057	0.97098
1080	H	0.28064	0.591969	0.980911
1081	C	0.222797	0.708668	0.559447
1082	C	0.230433	0.717085	0.603476
1083	C	0.25248	0.741981	0.614477
1084	C	0.260441	0.760296	0.577324
1085	C	0.252915	0.752509	0.531127
1086	C	0.236336	0.725646	0.524035
1087	H	0.275774	0.778667	0.583592
1088	H	0.230895	0.718577	0.992209
1089	H	0.223447	0.702913	0.628164
1090	C	0.299579	0.814118	0.809233
1091	C	0.29219	0.805685	0.853295
1092	C	0.270291	0.780745	0.864409
1093	C	0.262626	0.762296	0.827346
1094	C	0.269897	0.770114	0.781102
1095	C	0.286032	0.797088	0.773907
1096	H	0.247461	0.743875	0.833667
1097	H	0.291307	0.804181	0.742067
1098	H	0.299217	0.819882	0.877933
1099	C	0.300343	0.70879	0.713906
1100	C	0.293198	0.717215	0.669768
1101	C	0.271048	0.742061	0.658643
1102	C	0.262794	0.760359	0.695767
1103	C	0.27025	0.75261	0.741997
1104	C	0.286619	0.725719	0.749239
1105	H	0.247263	0.778646	0.689449
1106	H	0.291822	0.718608	0.781079
1107	H	0.300268	0.703026	0.645136
1108	C	0.222963	0.813962	0.964095
1109	C	0.22988	0.805528	0.919933
1110	C	0.251933	0.780657	0.908692
1111	C	0.260003	0.762265	0.945755
1112	C	0.252731	0.770016	0.992026
1113	C	0.236726	0.796994	0.999351
1114	H	0.275254	0.743885	0.939331
1115	H	0.231661	0.804124	0.531203
1116	H	0.222728	0.819732	0.895349
1117	C	0.34785	0.95915	0.55913
1118	C	0.354415	0.96782	0.603246
1119	C	0.376541	0.992699	0.614261
1120	C	0.385289	0.01078	0.577013
1121	C	0.378118	0.002859	0.53084
1122	C	0.36185	0.975927	0.523738
1123	H	0.400762	0.5291	0.583281
1124	H	0.35689	0.968663	0.991942
1125	H	0.347222	0.953725	0.627984
1126	C	0.425432	0.563754	0.809386
1127	C	0.418509	0.555095	0.853458
1128	C	0.396346	0.530211	0.864323
1129	C	0.387472	0.512252	0.826972
1130	C	0.394926	0.520162	0.780852
1131	C	0.411564	0.547007	0.77388
1132	H	0.371845	0.993973	0.83312
1133	H	0.416732	0.554254	0.74211
1134	H	0.425608	0.569181	0.878239
1135	C	0.424719	0.959041	0.713016
1136	C	0.41757	0.967638	0.66899
1137	C	0.395403	0.992536	0.658259
1138	C	0.387255	0.010704	0.695546
1139	C	0.39475	0.00276	0.74166
1140	C	0.411034	0.975805	0.748598
1141	H	0.371924	0.529098	0.689425
1142	H	0.416317	0.968573	0.780362
1143	H	0.424512	0.953514	0.644222
1144	C	0.347674	0.563863	0.962894
1145	C	0.354987	0.555193	0.918919
1146	C	0.37721	0.530318	0.908171
1147	C	0.385795	0.512336	0.945562
1148	C	0.378203	0.520263	0.991649
1149	C	0.361344	0.547069	0.998474
1150	H	0.401412	0.994045	0.939494
1151	H	0.356074	0.554302	0.530239
1152	H	0.348017	0.569248	0.894064
1153	C	0.470162	0.180048	0.050272
1154	C	0.6817	0.168621	0.036284
1155	C	0.678644	0.142356	0.514908
1156	C	0.469951	0.129967	0.505752
1157	C	0.511367	0.141088	0.517343
1158	C	0.508443	0.166265	0.041504
1159	H	0.470093	0.111815	0.488579
1160	H	0.535032	0.176411	0.051265
1161	H	0.655682	0.180693	0.041029
1162	C	0.802112	0.342743	0.300055
1163	C	0.590586	0.354266	0.286326
1164	C	0.593623	0.380594	0.265142
1165	C	0.802319	0.393004	0.25607
1166	C	0.7609	0.381813	0.267477
1167	C	0.763815	0.356503	0.291282
1168	H	0.8022	0.411264	0.2392
1169	H	0.737232	0.34626	0.300783
1170	H	0.616616	0.342203	0.291036
1171	C	0.802768	0.180115	0.22278
1172	C	0.591271	0.168628	0.236519
1173	C	0.594299	0.142342	0.25784
1174	C	0.802988	0.129954	0.266999
1175	C	0.761569	0.141125	0.255544
1176	C	0.764478	0.166375	0.23158
1177	H	0.802853	0.111775	0.284092
1178	H	0.737907	0.176612	0.222024
1179	H	0.617298	0.180695	0.231802
1180	C	0.470589	0.342636	0.472988
1181	C	0.682077	0.354162	0.486611
1182	C	0.679052	0.38046	0.007891
1183	C	0.470363	0.392839	0.017069
1184	C	0.511785	0.381646	0.005679
1185	C	0.508882	0.356356	0.481824
1186	H	0.470501	0.411022	0.03415
1187	H	0.535447	0.34609	0.472324
1188	H	0.65604	0.342115	0.481827
1189	C	0.595561	0.430428	0.050609
1190	C	0.557045	0.418779	0.037297
1191	C	0.554048	0.392364	0.516389
1192	C	0.595354	0.379912	0.507439
1193	C	0.636782	0.391197	0.518564
1194	C	0.633867	0.416683	0.041891
1195	H	0.595455	0.361499	0.491008
1196	H	0.660429	0.427102	0.050954
1197	H	0.531002	0.43087	0.041783
1198	C	0.677793	0.092477	0.300868
1199	C	0.716296	0.104056	0.287347
1200	C	0.719302	0.130427	0.266301
1201	C	0.677997	0.142873	0.257323
1202	C	0.636572	0.131635	0.268586
1203	C	0.639493	0.106239	0.29216
1204	H	0.677887	0.161227	0.240716
1205	H	0.612929	0.095878	0.301382
1206	H	0.742327	0.091951	0.291827
1207	C	0.677149	0.430336	0.221791
1208	C	0.715624	0.418834	0.235525
1209	C	0.718627	0.392515	0.256726
1210	C	0.677315	0.380098	0.265768
1211	C	0.635893	0.391308	0.254399
1212	C	0.638818	0.416624	0.2306
1213	H	0.677183	0.361819	0.282591
1214	H	0.612253	0.426918	0.221171
1215	H	0.741652	0.430924	0.230926
1216	C	0.595128	0.092537	0.47169
1217	C	0.556665	0.104075	0.485417
1218	C	0.553643	0.130421	0.006533
1219	C	0.594943	0.142874	0.015495
1220	C	0.636365	0.131674	0.004121
1221	C	0.633421	0.106321	0.48043
1222	H	0.595059	0.161217	0.032142
1223	H	0.660005	0.096057	0.47098
1224	H	0.530638	0.091969	0.480913
1225	C	0.472797	0.20867	0.059447
1226	C	0.480433	0.217085	0.103478
1227	C	0.502481	0.241981	0.114476
1228	C	0.51044	0.260296	0.077325
1229	C	0.502914	0.252511	0.031126
1230	C	0.486335	0.225648	0.024036
1231	H	0.525775	0.278667	0.083593
1232	H	0.480895	0.218576	0.492212
1233	H	0.473448	0.202914	0.128165
1234	C	0.549579	0.314118	0.309235
1235	C	0.542188	0.305687	0.353294
1236	C	0.520291	0.280744	0.364409
1237	C	0.512627	0.262296	0.327345
1238	C	0.519895	0.270116	0.281102
1239	C	0.536031	0.29709	0.273908
1240	H	0.497461	0.243874	0.333666
1241	H	0.541305	0.30418	0.242066
1242	H	0.549217	0.319882	0.377932
1243	C	0.550342	0.208791	0.213906
1244	C	0.543199	0.217214	0.16977
1245	C	0.521048	0.242063	0.158643
1246	C	0.512793	0.260358	0.195767
1247	C	0.52025	0.252609	0.241998
1248	C	0.536618	0.225719	0.24924
1249	H	0.497263	0.278648	0.189449
1250	H	0.541823	0.21861	0.28108
1251	H	0.55027	0.203026	0.145135
1252	C	0.472964	0.313963	0.464095
1253	C	0.479881	0.305528	0.419932
1254	C	0.501934	0.280656	0.408694
1255	C	0.510004	0.262264	0.445755
1256	C	0.502732	0.270016	0.492025
1257	C	0.486725	0.296994	0.49935
1258	H	0.525254	0.243885	0.439333
1259	H	0.481662	0.304126	0.031205
1260	H	0.472728	0.319731	0.395348
1261	C	0.597848	0.459149	0.05913
1262	C	0.604413	0.467819	0.103249
1263	C	0.626542	0.492701	0.114261
1264	C	0.63529	0.510779	0.077013
1265	C	0.628119	0.50286	0.03084
1266	C	0.611848	0.475926	0.023739
1267	H	0.65076	0.029099	0.083283
1268	H	0.606891	0.468662	0.491942
1269	H	0.59722	0.453726	0.127986
1270	C	0.675434	0.063755	0.309385
1271	C	0.668511	0.055095	0.353461
1272	C	0.646344	0.030212	0.364322
1273	C	0.637473	0.012253	0.326971
1274	C	0.644924	0.020162	0.280852
1275	C	0.661566	0.047007	0.273882
1276	H	0.621843	0.493975	0.333119
1277	H	0.666733	0.054254	0.24211
1278	H	0.675606	0.069181	0.378239
1279	C	0.674721	0.459041	0.213017
1280	C	0.667568	0.467637	0.168992
1281	C	0.645401	0.492536	0.158261
1282	C	0.637257	0.510706	0.195546
1283	C	0.644751	0.50276	0.241662
1284	C	0.661032	0.475805	0.2486
1285	H	0.621925	0.029098	0.189425
1286	H	0.666315	0.468572	0.280361
1287	H	0.67451	0.453513	0.144224
1288	C	0.597672	0.063864	0.462897
1289	C	0.604988	0.055193	0.418918
1290	C	0.627211	0.030318	0.408171
1291	C	0.635796	0.012337	0.445564
1292	C	0.628204	0.020263	0.491648
1293	C	0.611342	0.04707	0.498473
1294	H	0.651414	0.494044	0.439497
1295	H	0.606075	0.054301	0.030241
1296	H	0.598015	0.06925	0.394064
1297	C	0.470159	0.180048	0.550271
1298	C	0.6817	0.168621	0.536284
1299	C	0.678647	0.142356	0.014908
1300	C	0.469951	0.129967	0.005749
1301	C	0.511367	0.141088	0.017344
1302	C	0.508443	0.166265	0.541504
1303	H	0.470096	0.111815	0.988576
1304	H	0.535032	0.176411	0.551265
1305	H	0.655682	0.180693	0.541027
1306	C	0.802112	0.342743	0.800056
1307	C	0.590586	0.354266	0.786326
1308	C	0.593627	0.380594	0.76514
1309	C	0.802319	0.393004	0.756067
1310	C	0.7609	0.381813	0.767475
1311	C	0.763815	0.356503	0.791279
1312	H	0.8022	0.411264	0.739198
1313	H	0.737232	0.34626	0.800783
1314	H	0.616619	0.342203	0.791036
1315	C	0.802768	0.180115	0.72278
1316	C	0.591271	0.168628	0.73652
1317	C	0.594299	0.142342	0.757842
1318	C	0.802988	0.129955	0.766998
1319	C	0.761569	0.141125	0.755543
1320	C	0.764478	0.166375	0.731579
1321	H	0.80285	0.111776	0.784094
1322	H	0.737904	0.176612	0.722022
1323	H	0.617298	0.180695	0.731803
1324	C	0.470589	0.342636	0.972988
1325	C	0.682077	0.354162	0.986612
1326	C	0.679055	0.38046	0.50789
1327	C	0.470366	0.392839	0.517066
1328	C	0.511788	0.381646	0.505678
1329	C	0.508882	0.356356	0.981822
1330	H	0.470501	0.411022	0.534149
1331	H	0.535447	0.34609	0.972321
1332	H	0.65604	0.342115	0.981828
1333	C	0.595561	0.430428	0.550608
1334	C	0.557045	0.418779	0.537298
1335	C	0.554048	0.392364	0.016392
1336	C	0.595351	0.379912	0.00744
1337	C	0.636782	0.391197	0.018566
1338	C	0.633867	0.416683	0.541891
1339	H	0.595455	0.361497	0.991008
1340	H	0.660429	0.427102	0.550954
1341	H	0.531002	0.43087	0.541781
1342	C	0.677793	0.092477	0.800866
1343	C	0.716296	0.104056	0.787347
1344	C	0.719299	0.130427	0.766301
1345	C	0.677997	0.142873	0.757325
1346	C	0.636572	0.131635	0.768586
1347	C	0.639493	0.106238	0.79216
1348	H	0.677887	0.161228	0.740719
1349	H	0.612926	0.095877	0.80138
1350	H	0.742324	0.091951	0.791827
1351	C	0.677149	0.430336	0.721789
1352	C	0.715627	0.418834	0.735526
1353	C	0.718627	0.392515	0.756724
1354	C	0.677315	0.380098	0.765768
1355	C	0.635893	0.391308	0.754396
1356	C	0.638818	0.416624	0.730599
1357	H	0.677183	0.361819	0.78259
1358	H	0.612253	0.426918	0.721172
1359	H	0.741652	0.430924	0.730926
1360	C	0.595128	0.092537	0.971691
1361	C	0.556665	0.104075	0.985414
1362	C	0.55364	0.130421	0.506532
1363	C	0.594943	0.142874	0.515495
1364	C	0.636365	0.131674	0.50412
1365	C	0.633424	0.106321	0.980427
1366	H	0.595056	0.161216	0.532144
1367	H	0.660008	0.096056	0.97098
1368	H	0.530641	0.091969	0.980911
1369	C	0.472797	0.20867	0.559447
1370	C	0.480433	0.217085	0.603476
1371	C	0.502481	0.241981	0.614477
1372	C	0.51044	0.260296	0.577324
1373	C	0.502914	0.252511	0.531127
1374	C	0.486335	0.225648	0.524035
1375	H	0.525775	0.278667	0.583592
1376	H	0.480895	0.218576	0.992209
1377	H	0.473444	0.202914	0.628164
1378	C	0.549579	0.314118	0.809236
1379	C	0.542191	0.305687	0.853295
1380	C	0.520291	0.280744	0.864409
1381	C	0.512627	0.262298	0.827346
1382	C	0.519895	0.270116	0.781102
1383	C	0.536031	0.29709	0.773907
1384	H	0.497461	0.243874	0.833667
1385	H	0.541308	0.30418	0.742067
1386	H	0.549217	0.319882	0.877933
1387	C	0.550342	0.20879	0.713906
1388	C	0.543196	0.217214	0.669768
1389	C	0.521048	0.242063	0.658643
1390	C	0.512793	0.260358	0.695767
1391	C	0.52025	0.252609	0.741997
1392	C	0.536618	0.225719	0.749239
1393	H	0.497263	0.278648	0.689449
1394	H	0.54182	0.21861	0.781079
1395	H	0.550267	0.203025	0.645136
1396	C	0.472961	0.313963	0.964095
1397	C	0.479881	0.305528	0.919933
1398	C	0.501934	0.280656	0.908692
1399	C	0.510004	0.262264	0.945755
1400	C	0.502729	0.270016	0.992026
1401	C	0.486725	0.296994	0.999351
1402	H	0.525254	0.243885	0.939331
1403	H	0.481662	0.304126	0.531203
1404	H	0.472728	0.319731	0.895349
1405	C	0.597848	0.459149	0.55913
1406	C	0.604416	0.467819	0.603249
1407	C	0.626542	0.492701	0.614261
1408	C	0.63529	0.510779	0.577013
1409	C	0.628119	0.50286	0.53084
1410	C	0.611851	0.475926	0.523738
1411	H	0.65076	0.0291	0.583281
1412	H	0.606891	0.468662	0.991939
1413	H	0.59722	0.453726	0.627984
1414	C	0.675431	0.063754	0.809386
1415	C	0.668511	0.055095	0.853458
1416	C	0.646344	0.030211	0.864323
1417	C	0.637473	0.012253	0.826972
1418	C	0.644924	0.020162	0.780852
1419	C	0.661566	0.047007	0.77388
1420	H	0.621843	0.493975	0.83312
1421	H	0.66673	0.054254	0.74211
1422	H	0.675606	0.069181	0.878239
1423	C	0.674721	0.459043	0.713016
1424	C	0.667571	0.467637	0.66899
1425	C	0.645401	0.492536	0.658259
1426	C	0.637257	0.510706	0.695546
1427	C	0.644751	0.50276	0.74166
1428	C	0.661035	0.475805	0.748598
1429	H	0.621925	0.029098	0.689425
1430	H	0.666318	0.468572	0.780362
1431	H	0.674513	0.453513	0.644222
1432	C	0.597672	0.063863	0.962894
1433	C	0.604988	0.055193	0.918919
1434	C	0.627211	0.030318	0.908171
1435	C	0.635796	0.012337	0.945562
1436	C	0.628204	0.020262	0.991649
1437	C	0.611346	0.04707	0.998474
1438	H	0.651414	0.494044	0.939494
1439	H	0.606072	0.054301	0.530239
1440	H	0.598015	0.069249	0.894064
1441	C	0.470162	0.680048	0.050273
1442	C	0.6817	0.668621	0.036284
1443	C	0.678644	0.642356	0.514908
1444	C	0.469951	0.629966	0.505752
1445	C	0.511367	0.641088	0.517343
1446	C	0.508443	0.666265	0.041505
1447	H	0.470096	0.611815	0.488579
1448	H	0.535032	0.67641	0.051265
1449	H	0.655682	0.680692	0.041029
1450	C	0.802112	0.842741	0.300056
1451	C	0.590586	0.854267	0.286326
1452	C	0.593623	0.880594	0.265142
1453	C	0.802319	0.893005	0.25607
1454	C	0.7609	0.881814	0.267477
1455	C	0.763815	0.856503	0.291282
1456	H	0.8022	0.911265	0.2392
1457	H	0.737232	0.846258	0.300783
1458	H	0.616616	0.842203	0.291036
1459	C	0.802768	0.680115	0.22278
1460	C	0.591271	0.668627	0.236519
1461	C	0.594299	0.642341	0.25784
1462	C	0.802988	0.629954	0.267
1463	C	0.761569	0.641126	0.255545
1464	C	0.764478	0.666376	0.23158
1465	H	0.80285	0.611775	0.284093
1466	H	0.737907	0.67661	0.222024
1467	H	0.617298	0.680694	0.231802
1468	C	0.470589	0.842634	0.472988
1469	C	0.682077	0.85416	0.486611
1470	C	0.679052	0.88046	0.007891
1471	C	0.470366	0.892839	0.017069
1472	C	0.511785	0.881644	0.005679
1473	C	0.508882	0.856357	0.481821
1474	H	0.470501	0.91102	0.03415
1475	H	0.535447	0.846091	0.472324
1476	H	0.65604	0.842115	0.481827
1477	C	0.595561	0.930427	0.050609
1478	C	0.557045	0.918778	0.037298
1479	C	0.554048	0.892364	0.516389
1480	C	0.595354	0.87991	0.507439
1481	C	0.636782	0.891195	0.518564
1482	C	0.633867	0.916683	0.041891
1483	H	0.595455	0.861497	0.491008
1484	H	0.660429	0.927102	0.050955
1485	H	0.531002	0.930868	0.041783
1486	C	0.677793	0.592477	0.300869
1487	C	0.716296	0.604055	0.287347
1488	C	0.719302	0.630427	0.266302
1489	C	0.677997	0.642873	0.257323
1490	C	0.636572	0.631636	0.268586
1491	C	0.639493	0.606237	0.29216
1492	H	0.677887	0.661227	0.240718
1493	H	0.612926	0.595877	0.301382
1494	H	0.742327	0.59195	0.291827
1495	C	0.677149	0.930335	0.221791
1496	C	0.715627	0.918834	0.235526
1497	C	0.718627	0.892513	0.256726
1498	C	0.677315	0.880096	0.265769
1499	C	0.635893	0.891306	0.254399
1500	C	0.638818	0.916625	0.2306
1501	H	0.677183	0.861819	0.282591
1502	H	0.612253	0.926918	0.221171
1503	H	0.741652	0.930923	0.230926
1504	C	0.595128	0.592536	0.47169
1505	C	0.556665	0.604074	0.485417
1506	C	0.55364	0.63042	0.006533
1507	C	0.594943	0.642873	0.015495
1508	C	0.636365	0.631673	0.004121
1509	C	0.633421	0.606321	0.48043
1510	H	0.595059	0.661217	0.032143
1511	H	0.660005	0.596057	0.47098
1512	H	0.530641	0.591969	0.480913
1513	C	0.472797	0.708668	0.059447
1514	C	0.480433	0.717085	0.103478
1515	C	0.502481	0.741981	0.114476
1516	C	0.51044	0.760296	0.077325
1517	C	0.502914	0.752509	0.031126
1518	C	0.486335	0.725646	0.024036
1519	H	0.525775	0.778667	0.083593
1520	H	0.480895	0.718577	0.492212
1521	H	0.473448	0.702913	0.128165
1522	C	0.549579	0.814118	0.309235
1523	C	0.542191	0.805685	0.353294
1524	C	0.520291	0.780745	0.364409
1525	C	0.512627	0.762296	0.327345
1526	C	0.519895	0.770114	0.281102
1527	C	0.536031	0.797088	0.273908
1528	H	0.497461	0.743873	0.333666
1529	H	0.541305	0.804181	0.242066
1530	H	0.549217	0.819882	0.377932
1531	C	0.550342	0.70879	0.213906
1532	C	0.543199	0.717215	0.16977
1533	C	0.521048	0.742061	0.158643
1534	C	0.512793	0.760359	0.195767
1535	C	0.52025	0.75261	0.241998
1536	C	0.536618	0.725719	0.24924
1537	H	0.497263	0.778646	0.189449
1538	H	0.54182	0.718608	0.28108
1539	H	0.550267	0.703026	0.145135
1540	C	0.472964	0.813962	0.464095
1541	C	0.479881	0.805528	0.419932
1542	C	0.501934	0.780657	0.408694
1543	C	0.510004	0.762265	0.445755
1544	C	0.502732	0.770016	0.492025
1545	C	0.486725	0.796994	0.49935
1546	H	0.525254	0.743885	0.439333
1547	H	0.481662	0.804124	0.031205
1548	H	0.472728	0.819732	0.395348
1549	C	0.597848	0.95915	0.05913
1550	C	0.604413	0.96782	0.103249
1551	C	0.626542	0.992699	0.114261
1552	C	0.63529	0.01078	0.077013
1553	C	0.628119	0.002859	0.03084
1554	C	0.611848	0.975927	0.02374
1555	H	0.65076	0.529098	0.083283
1556	H	0.606891	0.968663	0.491942
1557	H	0.59722	0.953725	0.127986
1558	C	0.675431	0.563754	0.309385
1559	C	0.668511	0.555095	0.353461
1560	C	0.646344	0.530211	0.364322
1561	C	0.637473	0.512252	0.326971
1562	C	0.644924	0.520162	0.280852
1563	C	0.661566	0.547007	0.273882
1564	H	0.621843	0.993975	0.333119
1565	H	0.666733	0.554254	0.24211
1566	H	0.675606	0.569181	0.378239
1567	C	0.674721	0.959041	0.213017
1568	C	0.667571	0.967638	0.168993
1569	C	0.645401	0.992536	0.158261
1570	C	0.637257	0.010704	0.195546
1571	C	0.644751	0.00276	0.241662
1572	C	0.661032	0.975805	0.2486
1573	H	0.621925	0.529098	0.189425
1574	H	0.666315	0.968573	0.280361
1575	H	0.67451	0.953514	0.144224
1576	C	0.597672	0.563863	0.462897
1577	C	0.604988	0.555193	0.418918
1578	C	0.627211	0.530318	0.408171
1579	C	0.635796	0.512338	0.445564
1580	C	0.628204	0.520263	0.491648
1581	C	0.611346	0.547069	0.498473
1582	H	0.651414	0.994045	0.439497
1583	H	0.606072	0.554302	0.030241
1584	H	0.598015	0.569248	0.394064
1585	C	0.470159	0.680048	0.550271
1586	C	0.6817	0.668621	0.536284
1587	C	0.678644	0.642356	0.014909
1588	C	0.469951	0.629966	0.005749
1589	C	0.511367	0.641088	0.017344
1590	C	0.508443	0.666265	0.541504
1591	H	0.470096	0.611815	0.988576
1592	H	0.535032	0.67641	0.551265
1593	H	0.655682	0.680692	0.541027
1594	C	0.802112	0.842741	0.800056
1595	C	0.590586	0.854267	0.786326
1596	C	0.593623	0.880594	0.76514
1597	C	0.802319	0.893005	0.756067
1598	C	0.7609	0.881814	0.767475
1599	C	0.763815	0.856503	0.791279
1600	H	0.8022	0.911265	0.739198
1601	H	0.737232	0.846258	0.800783
1602	H	0.616616	0.842203	0.791036
1603	C	0.802768	0.680115	0.72278
1604	C	0.591271	0.668627	0.73652
1605	C	0.594299	0.642341	0.757838
1606	C	0.802988	0.629954	0.766998
1607	C	0.761569	0.641126	0.755543
1608	C	0.764478	0.666376	0.731579
1609	H	0.80285	0.611775	0.784094
1610	H	0.737907	0.67661	0.722022
1611	H	0.617298	0.680694	0.731803
1612	C	0.470589	0.842634	0.972988
1613	C	0.682077	0.85416	0.986612
1614	C	0.679052	0.88046	0.50789
1615	C	0.470366	0.892839	0.517066
1616	C	0.511785	0.881644	0.505678
1617	C	0.508882	0.856357	0.981822
1618	H	0.470501	0.91102	0.534149
1619	H	0.535447	0.846091	0.972321
1620	H	0.65604	0.842115	0.981828
1621	C	0.595561	0.930427	0.550608
1622	C	0.557045	0.918778	0.537298
1623	C	0.554048	0.892364	0.016392
1624	C	0.595354	0.87991	0.00744
1625	C	0.636782	0.891195	0.018567
1626	C	0.633867	0.916683	0.541888
1627	H	0.595455	0.861497	0.991005
1628	H	0.660429	0.927102	0.550954
1629	H	0.531002	0.930868	0.541781
1630	C	0.677793	0.592477	0.800866
1631	C	0.716296	0.604055	0.787347
1632	C	0.719302	0.630427	0.766301
1633	C	0.677997	0.642873	0.757321
1634	C	0.636572	0.631636	0.768586
1635	C	0.639493	0.606237	0.79216
1636	H	0.677887	0.661227	0.740716
1637	H	0.612926	0.595877	0.80138
1638	H	0.742327	0.59195	0.791827
1639	C	0.677149	0.930335	0.721789
1640	C	0.715627	0.918834	0.735526
1641	C	0.718627	0.892513	0.756724
1642	C	0.677315	0.880096	0.765768
1643	C	0.635893	0.891306	0.754396
1644	C	0.638818	0.916625	0.730599
1645	H	0.677183	0.861819	0.78259
1646	H	0.612253	0.926918	0.721168
1647	H	0.741652	0.930923	0.730926
1648	C	0.595128	0.592536	0.971691
1649	C	0.556665	0.604074	0.985414
1650	C	0.55364	0.63042	0.506532
1651	C	0.594943	0.642873	0.515495
1652	C	0.636365	0.631673	0.50412
1653	C	0.633421	0.606321	0.980427
1654	H	0.595056	0.661217	0.532141
1655	H	0.660005	0.596057	0.97098
1656	H	0.530641	0.591969	0.980911
1657	C	0.472797	0.708668	0.559447
1658	C	0.480433	0.717085	0.603476
1659	C	0.502481	0.741981	0.614477
1660	C	0.51044	0.760296	0.577324
1661	C	0.502914	0.752509	0.531127
1662	C	0.486335	0.725646	0.524035
1663	H	0.525775	0.778667	0.583592
1664	H	0.480895	0.718577	0.992209
1665	H	0.473448	0.702913	0.628164
1666	C	0.549579	0.814118	0.809233
1667	C	0.542188	0.805685	0.853295
1668	C	0.520291	0.780745	0.864409
1669	C	0.512627	0.762296	0.827346
1670	C	0.519895	0.770114	0.781102
1671	C	0.536031	0.797088	0.773907
1672	H	0.497461	0.743875	0.833667
1673	H	0.541305	0.804181	0.742067
1674	H	0.549217	0.819882	0.877933
1675	C	0.550342	0.70879	0.713906
1676	C	0.543199	0.717215	0.669768
1677	C	0.521048	0.742061	0.658643
1678	C	0.512793	0.760359	0.695767
1679	C	0.52025	0.75261	0.741997
1680	C	0.536618	0.725719	0.749239
1681	H	0.497263	0.778646	0.689449
1682	H	0.54182	0.718608	0.781079
1683	H	0.550267	0.703026	0.645136
1684	C	0.472964	0.813962	0.964095
1685	C	0.479881	0.805528	0.919933
1686	C	0.501934	0.780657	0.908692
1687	C	0.510004	0.762265	0.945755
1688	C	0.502729	0.770016	0.992026
1689	C	0.486725	0.796994	0.999351
1690	H	0.525254	0.743885	0.939331
1691	H	0.481662	0.804124	0.531203
1692	H	0.472728	0.819732	0.895349
1693	C	0.597848	0.95915	0.55913
1694	C	0.604413	0.96782	0.603246
1695	C	0.626542	0.992699	0.614261
1696	C	0.63529	0.01078	0.577013
1697	C	0.628119	0.002859	0.53084
1698	C	0.611848	0.975927	0.523738
1699	H	0.65076	0.5291	0.583281
1700	H	0.606891	0.968663	0.991942
1701	H	0.59722	0.953725	0.627984
1702	C	0.675431	0.563754	0.809386
1703	C	0.668511	0.555095	0.853458
1704	C	0.646344	0.530211	0.864323
1705	C	0.637473	0.512252	0.826972
1706	C	0.644924	0.520162	0.780852
1707	C	0.661566	0.547007	0.77388
1708	H	0.621843	0.993973	0.83312
1709	H	0.666733	0.554254	0.74211
1710	H	0.675606	0.569181	0.878239
1711	C	0.674721	0.959041	0.713016
1712	C	0.667571	0.967638	0.66899
1713	C	0.645401	0.992536	0.658259
1714	C	0.637257	0.010704	0.695546
1715	C	0.644751	0.00276	0.74166
1716	C	0.661032	0.975805	0.748598
1717	H	0.621925	0.529098	0.689425
1718	H	0.666315	0.968573	0.780362
1719	H	0.67451	0.953514	0.644222
1720	C	0.597672	0.563863	0.962894
1721	C	0.604988	0.555193	0.918919
1722	C	0.627211	0.530318	0.908171
1723	C	0.635796	0.512336	0.945562
1724	C	0.628204	0.520263	0.991649
1725	C	0.611346	0.547069	0.998474
1726	H	0.651414	0.994045	0.939494
1727	H	0.606072	0.554302	0.530239
1728	H	0.598015	0.569248	0.894064
1729	C	0.72016	0.180048	0.050272
1730	C	0.931701	0.168621	0.036284
1731	C	0.928645	0.142356	0.514908
1732	C	0.719953	0.129967	0.505752
1733	C	0.761365	0.141088	0.517343
1734	C	0.758444	0.166265	0.041504
1735	H	0.720094	0.111815	0.488579
1736	H	0.785033	0.176411	0.051265
1737	H	0.905684	0.180693	0.041029
1738	C	0.052112	0.342743	0.300055
1739	C	0.840584	0.354266	0.286326
1740	C	0.843625	0.380594	0.265142
1741	C	0.05232	0.393004	0.25607
1742	C	0.010898	0.381813	0.267477
1743	C	0.013816	0.356503	0.291282
1744	H	0.052199	0.411264	0.2392
1745	H	0.98723	0.34626	0.300783
1746	H	0.866618	0.342203	0.291036
1747	C	0.05277	0.180115	0.22278
1748	C	0.841272	0.168628	0.236519
1749	C	0.8443	0.142342	0.25784
1750	C	0.05299	0.129954	0.266999
1751	C	0.01157	0.141125	0.255544
1752	C	0.01448	0.166375	0.23158
1753	H	0.052853	0.111775	0.284092
1754	H	0.987905	0.176612	0.222024
1755	H	0.867299	0.180695	0.231802
1756	C	0.720587	0.342636	0.472988
1757	C	0.932078	0.354162	0.486611
1758	C	0.929053	0.38046	0.007891
1759	C	0.720364	0.392839	0.017069
1760	C	0.761786	0.381646	0.005679
1761	C	0.758884	0.356356	0.481824
1762	H	0.720502	0.411022	0.03415
1763	H	0.785448	0.34609	0.472324
1764	H	0.906042	0.342115	0.481827
1765	C	0.84556	0.430428	0.050609
1766	C	0.807043	0.418779	0.037297
1767	C	0.80405	0.392364	0.516389
1768	C	0.845352	0.379912	0.507439
1769	C	0.886784	0.391197	0.518564
1770	C	0.883869	0.416683	0.041891
1771	H	0.845453	0.361499	0.491008
1772	H	0.91043	0.427102	0.050954
1773	H	0.781	0.43087	0.041783
1774	C	0.927794	0.092477	0.300868
1775	C	0.966298	0.104056	0.287347
1776	C	0.969301	0.130427	0.266301
1777	C	0.927998	0.142873	0.257323
1778	C	0.88657	0.131635	0.268586
1779	C	0.889494	0.106239	0.29216
1780	H	0.927888	0.161227	0.240716
1781	H	0.862927	0.095878	0.301382
1782	H	0.992325	0.091951	0.291827
1783	C	0.927147	0.430336	0.221791
1784	C	0.965625	0.418834	0.235525
1785	C	0.968628	0.392515	0.256726
1786	C	0.927313	0.380098	0.265768
1787	C	0.885895	0.391308	0.254399
1788	C	0.888816	0.416624	0.2306
1789	H	0.927185	0.361819	0.282591
1790	H	0.862251	0.426918	0.221171
1791	H	0.99165	0.430924	0.230926
1792	C	0.845126	0.092537	0.47169
1793	C	0.806663	0.104075	0.485417
1794	C	0.803641	0.130421	0.006533
1795	C	0.844944	0.142874	0.015495
1796	C	0.886366	0.131674	0.004121
1797	C	0.883423	0.106321	0.48043
1798	H	0.845057	0.161217	0.032142
1799	H	0.910006	0.096057	0.47098
1800	H	0.780639	0.091969	0.480913
1801	C	0.722795	0.20867	0.059447
1802	C	0.730431	0.217085	0.103478
1803	C	0.752479	0.241981	0.114476
1804	C	0.760442	0.260296	0.077325
1805	C	0.752916	0.252511	0.031126
1806	C	0.736337	0.225648	0.024036
1807	H	0.775773	0.278667	0.083593
1808	H	0.730893	0.218576	0.492212
1809	H	0.723446	0.202914	0.128165
1810	C	0.79958	0.314118	0.309235
1811	C	0.792189	0.305687	0.353294
1812	C	0.770289	0.280744	0.364409
1813	C	0.762625	0.262296	0.327345
1814	C	0.769896	0.270116	0.281102
1815	C	0.786032	0.29709	0.273908
1816	H	0.747459	0.243874	0.333666
1817	H	0.791306	0.30418	0.242066
1818	H	0.799216	0.319882	0.377932
1819	C	0.800343	0.208791	0.213906
1820	C	0.793197	0.217214	0.16977
1821	C	0.771049	0.242063	0.158642
1822	C	0.762794	0.260358	0.195767
1823	C	0.770248	0.252609	0.241998
1824	C	0.78662	0.225719	0.24924
1825	H	0.747262	0.278648	0.189449
1826	H	0.791821	0.21861	0.28108
1827	H	0.800268	0.203026	0.145135
1828	C	0.722962	0.313963	0.464095
1829	C	0.729879	0.305528	0.419932
1830	C	0.751932	0.280656	0.408694
1831	C	0.760002	0.262264	0.445755
1832	C	0.75273	0.270016	0.492025
1833	C	0.736726	0.296994	0.49935
1834	H	0.775252	0.243885	0.439333
1835	H	0.73166	0.304126	0.031205
1836	H	0.722726	0.319731	0.395348
1837	C	0.847849	0.459149	0.05913
1838	C	0.854414	0.467819	0.103249
1839	C	0.87654	0.492701	0.114261
1840	C	0.885291	0.510779	0.077013
1841	C	0.878117	0.50286	0.03084
1842	C	0.861849	0.475926	0.023739
1843	H	0.900761	0.029099	0.083283
1844	H	0.85689	0.468662	0.491942
1845	H	0.847221	0.453726	0.127986
1846	C	0.925432	0.063755	0.309385
1847	C	0.918509	0.055095	0.353461
1848	C	0.896345	0.030212	0.364322
1849	C	0.887471	0.012253	0.326971
1850	C	0.894925	0.020162	0.280852
1851	C	0.911567	0.047007	0.273882
1852	H	0.871844	0.493975	0.333119
1853	H	0.916731	0.054254	0.24211
1854	H	0.925608	0.069181	0.378239
1855	C	0.924719	0.459041	0.213017
1856	C	0.91757	0.467637	0.168992
1857	C	0.895403	0.492536	0.158261
1858	C	0.887255	0.510706	0.195546
1859	C	0.894749	0.50276	0.241662
1860	C	0.911033	0.475805	0.2486
1861	H	0.871926	0.029098	0.189425
1862	H	0.916316	0.468572	0.280361
1863	H	0.924511	0.453513	0.144224
1864	C	0.84767	0.063864	0.462897
1865	C	0.854986	0.055193	0.418918
1866	C	0.877209	0.030318	0.408171
1867	C	0.885794	0.012337	0.445564
1868	C	0.878202	0.020263	0.491648
1869	C	0.861344	0.04707	0.498473
1870	H	0.901412	0.494044	0.439497
1871	H	0.856073	0.054301	0.030241
1872	H	0.848016	0.06925	0.394064
1873	C	0.72016	0.180048	0.550271
1874	C	0.931698	0.168621	0.536284
1875	C	0.928645	0.142356	0.014908
1876	C	0.719953	0.129967	0.005749
1877	C	0.761368	0.141088	0.017344
1878	C	0.758441	0.166265	0.541504
1879	H	0.720094	0.111815	0.988576
1880	H	0.78503	0.176411	0.551265
1881	H	0.90568	0.180693	0.541027
1882	C	0.052113	0.342743	0.800056
1883	C	0.840587	0.354266	0.786326
1884	C	0.843625	0.380594	0.76514
1885	C	0.052321	0.393004	0.756067
1886	C	0.010898	0.381813	0.767475
1887	C	0.013817	0.356503	0.791279
1888	H	0.0522	0.411264	0.739198
1889	H	0.987233	0.34626	0.800783
1890	H	0.866618	0.342203	0.791036
1891	C	0.052769	0.180115	0.72278
1892	C	0.841269	0.168628	0.73652
1893	C	0.844297	0.142342	0.757842
1894	C	0.052989	0.129955	0.766998
1895	C	0.011569	0.141125	0.755543
1896	C	0.014478	0.166375	0.731579
1897	H	0.052851	0.111776	0.784094
1898	H	0.987905	0.176612	0.722022
1899	H	0.867296	0.180695	0.731803
1900	C	0.720587	0.342636	0.972988
1901	C	0.932075	0.354162	0.986612
1902	C	0.929053	0.38046	0.50789
1903	C	0.720364	0.392839	0.517066
1904	C	0.761786	0.381646	0.505678
1905	C	0.758884	0.356356	0.981822
1906	H	0.720502	0.411022	0.534149
1907	H	0.785448	0.34609	0.972321
1908	H	0.906039	0.342115	0.981828
1909	C	0.845563	0.430428	0.550608
1910	C	0.807043	0.418779	0.537298
1911	C	0.804047	0.392364	0.016392
1912	C	0.845352	0.379912	0.00744
1913	C	0.886784	0.391197	0.018566
1914	C	0.883869	0.416683	0.541891
1915	H	0.845453	0.361497	0.991008
1916	H	0.91043	0.427102	0.550954
1917	H	0.781	0.43087	0.541781
1918	C	0.927791	0.092477	0.800866
1919	C	0.966295	0.104056	0.787347
1920	C	0.969301	0.130427	0.766301
1921	C	0.927995	0.142873	0.757325
1922	C	0.88657	0.131635	0.768586
1923	C	0.889491	0.106238	0.79216
1924	H	0.927885	0.161228	0.740719
1925	H	0.862927	0.095877	0.80138
1926	H	0.992325	0.091951	0.791827
1927	C	0.92715	0.430336	0.721789
1928	C	0.965625	0.418834	0.735526
1929	C	0.968628	0.392515	0.756724
1930	C	0.927313	0.380098	0.765768
1931	C	0.885895	0.391308	0.754396
1932	C	0.888819	0.416624	0.730599
1933	H	0.927185	0.361819	0.78259
1934	H	0.862251	0.426918	0.721172
1935	H	0.991653	0.430924	0.730926
1936	C	0.845129	0.092537	0.971691
1937	C	0.806666	0.104075	0.985414
1938	C	0.803641	0.130421	0.506532
1939	C	0.844941	0.142874	0.515495
1940	C	0.886363	0.131674	0.50412
1941	C	0.883423	0.106321	0.980427
1942	H	0.845057	0.161216	0.532144
1943	H	0.910006	0.096056	0.97098
1944	H	0.780639	0.091969	0.980911
1945	C	0.722795	0.20867	0.559447
1946	C	0.730431	0.217085	0.603476
1947	C	0.752479	0.241981	0.614477
1948	C	0.760442	0.260296	0.577324
1949	C	0.752916	0.252511	0.531127
1950	C	0.736334	0.225648	0.524035
1951	H	0.775773	0.278667	0.583592
1952	H	0.730896	0.218576	0.992209
1953	H	0.723446	0.202914	0.628164
1954	C	0.79958	0.314118	0.809233
1955	C	0.792189	0.305687	0.853295
1956	C	0.770289	0.280744	0.864409
1957	C	0.762625	0.262298	0.827346
1958	C	0.769896	0.270116	0.781102
1959	C	0.786032	0.29709	0.773907
1960	H	0.747459	0.243874	0.833667
1961	H	0.791306	0.30418	0.742067
1962	H	0.799216	0.319882	0.877933
1963	C	0.800343	0.20879	0.713906
1964	C	0.793197	0.217214	0.669768
1965	C	0.771046	0.242063	0.658643
1966	C	0.762794	0.260358	0.695767
1967	C	0.770248	0.252609	0.741997
1968	C	0.786617	0.225719	0.749239
1969	H	0.747262	0.278648	0.689449
1970	H	0.791821	0.21861	0.781079
1971	H	0.800268	0.203025	0.645136
1972	C	0.722962	0.313963	0.964095
1973	C	0.729879	0.305528	0.919933
1974	C	0.751932	0.280656	0.908692
1975	C	0.760002	0.262264	0.945755
1976	C	0.75273	0.270016	0.992026
1977	C	0.736726	0.296994	0.999351
1978	H	0.775252	0.243885	0.939331
1979	H	0.73166	0.304126	0.531203
1980	H	0.722726	0.319731	0.895349
1981	C	0.847849	0.459149	0.55913
1982	C	0.854414	0.467819	0.603249
1983	C	0.87654	0.492701	0.614261
1984	C	0.885291	0.510779	0.577013
1985	C	0.878117	0.50286	0.53084
1986	C	0.861849	0.475926	0.523738
1987	H	0.900758	0.0291	0.583281
1988	H	0.85689	0.468662	0.991939
1989	H	0.847221	0.453726	0.627984
1990	C	0.925432	0.063754	0.809386
1991	C	0.918509	0.055095	0.853458
1992	C	0.896345	0.030211	0.864323
1993	C	0.887471	0.012253	0.826972
1994	C	0.894925	0.020162	0.780852
1995	C	0.911564	0.047007	0.77388
1996	H	0.871844	0.493975	0.83312
1997	H	0.916731	0.054254	0.74211
1998	H	0.925608	0.069181	0.878239
1999	C	0.924722	0.459043	0.713016
2000	C	0.91757	0.467637	0.66899
2001	C	0.895403	0.492536	0.658259
2002	C	0.887255	0.510706	0.695546
2003	C	0.894749	0.50276	0.74166
2004	C	0.911033	0.475805	0.748598
2005	H	0.871923	0.029098	0.689425
2006	H	0.916316	0.468572	0.780362
2007	H	0.924511	0.453513	0.644222
2008	C	0.847674	0.063863	0.962894
2009	C	0.854986	0.055193	0.918919
2010	C	0.877209	0.030318	0.908171
2011	C	0.885794	0.012337	0.945562
2012	C	0.878205	0.020262	0.991649
2013	C	0.861344	0.04707	0.998474
2014	H	0.901412	0.494044	0.939494
2015	H	0.856073	0.054301	0.530239
2016	H	0.848016	0.069249	0.894064
2017	C	0.72016	0.680048	0.050273
2018	C	0.931698	0.668621	0.036284
2019	C	0.928645	0.642356	0.514908
2020	C	0.719953	0.629966	0.505752
2021	C	0.761365	0.641088	0.517343
2022	C	0.758444	0.666265	0.041505
2023	H	0.720094	0.611815	0.488579
2024	H	0.78503	0.67641	0.051265
2025	H	0.905684	0.680692	0.041029
2026	C	0.052112	0.842741	0.300056
2027	C	0.840584	0.854267	0.286326
2028	C	0.843625	0.880594	0.265142
2029	C	0.05232	0.893005	0.25607
2030	C	0.010898	0.881814	0.267477
2031	C	0.013816	0.856503	0.291282
2032	H	0.0522	0.911265	0.2392
2033	H	0.987233	0.846258	0.300783
2034	H	0.866618	0.842203	0.291036
2035	C	0.052769	0.680115	0.22278
2036	C	0.841272	0.668627	0.236519
2037	C	0.844297	0.642341	0.25784
2038	C	0.05299	0.629954	0.267
2039	C	0.01157	0.641126	0.255545
2040	C	0.014479	0.666376	0.23158
2041	H	0.052852	0.611775	0.284093
2042	H	0.987905	0.67661	0.222024
2043	H	0.867296	0.680694	0.231802
2044	C	0.720587	0.842634	0.472988
2045	C	0.932075	0.85416	0.486611
2046	C	0.929053	0.88046	0.007891
2047	C	0.720364	0.892839	0.017069
2048	C	0.761786	0.881644	0.005679
2049	C	0.758884	0.856357	0.481821
2050	H	0.720502	0.91102	0.03415
2051	H	0.785448	0.846091	0.472324
2052	H	0.906039	0.842115	0.481827
2053	C	0.84556	0.930427	0.050609
2054	C	0.807043	0.918778	0.037298
2055	C	0.80405	0.892364	0.516389
2056	C	0.845352	0.87991	0.507439
2057	C	0.886784	0.891195	0.518564
2058	C	0.883869	0.916683	0.041891
2059	H	0.845453	0.861497	0.491008
2060	H	0.91043	0.927102	0.050955
2061	H	0.781	0.930868	0.041783
2062	C	0.927791	0.592477	0.300869
2063	C	0.966295	0.604055	0.287347
2064	C	0.969301	0.630427	0.266302
2065	C	0.927998	0.642873	0.257323
2066	C	0.88657	0.631636	0.268586
2067	C	0.889491	0.606237	0.29216
2068	H	0.927888	0.661227	0.240718
2069	H	0.862927	0.595877	0.301382
2070	H	0.992325	0.59195	0.291827
2071	C	0.92715	0.930335	0.221791
2072	C	0.965625	0.918834	0.235526
2073	C	0.968628	0.892513	0.256726
2074	C	0.927313	0.880096	0.265769
2075	C	0.885895	0.891306	0.254399
2076	C	0.888816	0.916625	0.2306
2077	H	0.927185	0.861819	0.282591
2078	H	0.862251	0.926918	0.221171
2079	H	0.991653	0.930923	0.230926
2080	C	0.845126	0.592536	0.47169
2081	C	0.806663	0.604074	0.485417
2082	C	0.803641	0.63042	0.006533
2083	C	0.844944	0.642873	0.015495
2084	C	0.886363	0.631673	0.004121
2085	C	0.883423	0.606321	0.48043
2086	H	0.845057	0.661217	0.032143
2087	H	0.910006	0.596057	0.47098
2088	H	0.780639	0.591969	0.480913
2089	C	0.722795	0.708668	0.059447
2090	C	0.730431	0.717085	0.103478
2091	C	0.752479	0.741981	0.114476
2092	C	0.760442	0.760296	0.077325
2093	C	0.752916	0.752509	0.031126
2094	C	0.736334	0.725646	0.024036
2095	H	0.775773	0.778667	0.083593
2096	H	0.730896	0.718577	0.492212
2097	H	0.723446	0.702913	0.128165
2098	C	0.79958	0.814118	0.309235
2099	C	0.792189	0.805685	0.353294
2100	C	0.770289	0.780745	0.364409
2101	C	0.762625	0.762296	0.327345
2102	C	0.769896	0.770114	0.281102
2103	C	0.786032	0.797088	0.273908
2104	H	0.747459	0.743873	0.333666
2105	H	0.791306	0.804181	0.242066
2106	H	0.799216	0.819882	0.377932
2107	C	0.800343	0.70879	0.213906
2108	C	0.793197	0.717215	0.16977
2109	C	0.771049	0.742061	0.158643
2110	C	0.762794	0.760359	0.195767
2111	C	0.770248	0.75261	0.241998
2112	C	0.78662	0.725719	0.24924
2113	H	0.747262	0.778646	0.189449
2114	H	0.791821	0.718608	0.28108
2115	H	0.800268	0.703026	0.145135
2116	C	0.722962	0.813962	0.464095
2117	C	0.729879	0.805528	0.419932
2118	C	0.751932	0.780657	0.408694
2119	C	0.760002	0.762265	0.445755
2120	C	0.75273	0.770016	0.492025
2121	C	0.736726	0.796994	0.49935
2122	H	0.775252	0.743885	0.439333
2123	H	0.73166	0.804124	0.031205
2124	H	0.722726	0.819732	0.395348
2125	C	0.847849	0.95915	0.05913
2126	C	0.854414	0.96782	0.103249
2127	C	0.87654	0.992699	0.114261
2128	C	0.885291	0.01078	0.077013
2129	C	0.878117	0.002859	0.03084
2130	C	0.861849	0.975927	0.02374
2131	H	0.900761	0.529098	0.083283
2132	H	0.85689	0.968663	0.491942
2133	H	0.847221	0.953725	0.127986
2134	C	0.925432	0.563754	0.309385
2135	C	0.918509	0.555095	0.353461
2136	C	0.896345	0.530211	0.364322
2137	C	0.887471	0.512252	0.326971
2138	C	0.894925	0.520162	0.280852
2139	C	0.911564	0.547007	0.273882
2140	H	0.871844	0.993975	0.333119
2141	H	0.916731	0.554254	0.24211
2142	H	0.925608	0.569181	0.378239
2143	C	0.924719	0.959041	0.213017
2144	C	0.91757	0.967638	0.168993
2145	C	0.895403	0.992536	0.158261
2146	C	0.887255	0.010704	0.195546
2147	C	0.894749	0.00276	0.241662
2148	C	0.911033	0.975805	0.2486
2149	H	0.871923	0.529098	0.189425
2150	H	0.916316	0.968573	0.280361
2151	H	0.924511	0.953514	0.144224
2152	C	0.847674	0.563863	0.462897
2153	C	0.854986	0.555193	0.418918
2154	C	0.877209	0.530318	0.408171
2155	C	0.885794	0.512338	0.445564
2156	C	0.878202	0.520263	0.491651
2157	C	0.861344	0.547069	0.498473
2158	H	0.901412	0.994045	0.439497
2159	H	0.856073	0.554302	0.030241
2160	H	0.848016	0.569248	0.394064
2161	C	0.72016	0.680048	0.550271
2162	C	0.931698	0.668621	0.536284
2163	C	0.928645	0.642356	0.014909
2164	C	0.719953	0.629966	0.005749
2165	C	0.761365	0.641088	0.017344
2166	C	0.758444	0.666265	0.541504
2167	H	0.720094	0.611815	0.988576
2168	H	0.78503	0.67641	0.551265
2169	H	0.905684	0.680692	0.541027
2170	C	0.052112	0.842741	0.800056
2171	C	0.840587	0.854267	0.786326
2172	C	0.843625	0.880594	0.76514
2173	C	0.05232	0.893005	0.756067
2174	C	0.010898	0.881814	0.767475
2175	C	0.013816	0.856503	0.791279
2176	H	0.0522	0.911265	0.739198
2177	H	0.987233	0.846258	0.800783
2178	H	0.866618	0.842203	0.791036
2179	C	0.052769	0.680115	0.72278
2180	C	0.841272	0.668627	0.73652
2181	C	0.844297	0.642341	0.757838
2182	C	0.05299	0.629954	0.766998
2183	C	0.011569	0.641126	0.755543
2184	C	0.014479	0.666376	0.731579
2185	H	0.052852	0.611775	0.784094
2186	H	0.987905	0.67661	0.722022
2187	H	0.867296	0.680694	0.731803
2188	C	0.720587	0.842634	0.972988
2189	C	0.932075	0.85416	0.986612
2190	C	0.929053	0.88046	0.50789
2191	C	0.720364	0.892839	0.517066
2192	C	0.761786	0.881644	0.505678
2193	C	0.758884	0.856357	0.981822
2194	H	0.720502	0.91102	0.534149
2195	H	0.785448	0.846091	0.972321
2196	H	0.906039	0.842115	0.981828
2197	C	0.845563	0.930427	0.550608
2198	C	0.807043	0.918778	0.537298
2199	C	0.80405	0.892364	0.016392
2200	C	0.845352	0.87991	0.00744
2201	C	0.886784	0.891195	0.018567
2202	C	0.883869	0.916683	0.541888
2203	H	0.845453	0.861497	0.991005
2204	H	0.91043	0.927102	0.550954
2205	H	0.781	0.930868	0.541781
2206	C	0.927791	0.592477	0.800866
2207	C	0.966295	0.604055	0.787347
2208	C	0.969301	0.630427	0.766301
2209	C	0.927998	0.642873	0.757321
2210	C	0.88657	0.631636	0.768586
2211	C	0.889491	0.606237	0.79216
2212	H	0.927888	0.661227	0.740716
2213	H	0.862927	0.595877	0.80138
2214	H	0.992325	0.59195	0.791827
2215	C	0.92715	0.930335	0.721789
2216	C	0.965625	0.918834	0.735526
2217	C	0.968628	0.892513	0.756724
2218	C	0.927313	0.880096	0.765768
2219	C	0.885895	0.891306	0.754396
2220	C	0.888816	0.916625	0.730599
2221	H	0.927185	0.861819	0.78259
2222	H	0.862251	0.926918	0.721168
2223	H	0.991653	0.930923	0.730926
2224	C	0.845126	0.592536	0.971691
2225	C	0.806663	0.604074	0.985414
2226	C	0.803641	0.63042	0.506532
2227	C	0.844944	0.642873	0.515495
2228	C	0.886363	0.631673	0.50412
2229	C	0.883423	0.606321	0.980427
2230	H	0.845057	0.661217	0.532141
2231	H	0.910006	0.596057	0.97098
2232	H	0.780639	0.591969	0.980911
2233	C	0.722795	0.708668	0.559447
2234	C	0.730431	0.717085	0.603476
2235	C	0.752479	0.741981	0.614477
2236	C	0.760442	0.760296	0.577324
2237	C	0.752916	0.752509	0.531127
2238	C	0.736334	0.725646	0.524035
2239	H	0.775773	0.778667	0.583592
2240	H	0.730896	0.718577	0.992209
2241	H	0.723446	0.702913	0.628164
2242	C	0.79958	0.814118	0.809233
2243	C	0.792189	0.805685	0.853295
2244	C	0.770289	0.780745	0.864409
2245	C	0.762625	0.762296	0.827346
2246	C	0.769896	0.770114	0.781102
2247	C	0.786032	0.797088	0.773907
2248	H	0.747459	0.743875	0.833667
2249	H	0.791306	0.804181	0.742064
2250	H	0.799216	0.819882	0.877933
2251	C	0.800343	0.70879	0.713906
2252	C	0.793197	0.717215	0.669768
2253	C	0.771049	0.742061	0.658643
2254	C	0.762794	0.760359	0.695767
2255	C	0.770248	0.75261	0.741997
2256	C	0.78662	0.725719	0.749239
2257	H	0.747262	0.778646	0.689449
2258	H	0.791821	0.718608	0.781079
2259	H	0.800268	0.703026	0.645136
2260	C	0.722962	0.813962	0.964095
2261	C	0.729879	0.805528	0.919933
2262	C	0.751932	0.780657	0.908692
2263	C	0.760002	0.762265	0.945755
2264	C	0.75273	0.770016	0.992026
2265	C	0.736726	0.796994	0.999351
2266	H	0.775252	0.743885	0.939331
2267	H	0.73166	0.804124	0.531203
2268	H	0.722726	0.819732	0.895349
2269	C	0.847849	0.95915	0.55913
2270	C	0.854414	0.96782	0.603246
2271	C	0.87654	0.992699	0.614261
2272	C	0.885288	0.01078	0.577013
2273	C	0.878117	0.002859	0.53084
2274	C	0.861849	0.975927	0.523738
2275	H	0.900761	0.5291	0.583281
2276	H	0.85689	0.968663	0.991942
2277	H	0.847221	0.953725	0.627984
2278	C	0.925432	0.563754	0.809386
2279	C	0.918509	0.555095	0.853458
2280	C	0.896345	0.530211	0.864323
2281	C	0.887471	0.512252	0.826972
2282	C	0.894925	0.520162	0.780852
2283	C	0.911564	0.547007	0.77388
2284	H	0.871844	0.993973	0.83312
2285	H	0.916731	0.554254	0.74211
2286	H	0.925608	0.569181	0.878239
2287	C	0.924719	0.959041	0.713016
2288	C	0.91757	0.967638	0.66899
2289	C	0.895403	0.992536	0.658259
2290	C	0.887255	0.010704	0.695546
2291	C	0.894749	0.00276	0.74166
2292	C	0.911033	0.975805	0.748598
2293	H	0.871923	0.529098	0.689425
2294	H	0.916316	0.968573	0.780362
2295	H	0.924511	0.953514	0.644222
2296	C	0.847674	0.563863	0.962894
2297	C	0.854986	0.555193	0.918919
2298	C	0.877209	0.530318	0.908171
2299	C	0.885794	0.512336	0.945562
2300	C	0.878202	0.520263	0.991649
2301	C	0.861344	0.547069	0.998474
2302	H	0.901412	0.994045	0.939494
2303	H	0.856073	0.554302	0.530239
2304	H	0.848016	0.569248	0.894064
