data_C2112H1920_2018-02-15_12:28:31
#******************************************
#
# CIF file created by Zeo++
# Zeo++ is an open source package to
# analyze microporous materials
#
#*******************************************

_cell_length_a		42.32   
_cell_length_b		42.32   
_cell_length_c		26.2316   
_cell_angle_alpha		90   
_cell_angle_beta		90   
_cell_angle_gamma		90   

_symmetry_space_group_name_H-M		'P1'
_symmetry_Int_Tables_number		1
_symmetry_cell_setting		Tetragonal

loop_
_symmetry_equiv_pos_as_xyz
'+x,+y,+z'

loop_
_atom_site_label
_atom_site_type_symbol
_atom_site_fract_x
_atom_site_fract_y
_atom_site_fract_z
1	C	0.093516	0.288289	0.149128
2	C	0.072257	0.25902	0.136665
3	C	0.102816	0.303701	0.09686
4	C	0.120141	0.280504	0.058979
5	H	0.118099	0.323743	0.1052
6	H	0.081756	0.312722	0.077912
7	C	0.097811	0.250978	0.051109
8	C	0.088938	0.233331	0.103033
9	H	0.076261	0.25846	0.031454
10	H	0.109978	0.234653	0.025656
11	H	0.050906	0.266231	0.116219
12	H	0.064832	0.249535	0.17337
13	C	0.120541	0.222542	0.128507
14	C	0.143362	0.250917	0.139403
15	H	0.132374	0.205341	0.103759
16	H	0.115148	0.210302	0.164234
17	C	0.149918	0.268249	0.087819
18	H	0.161874	0.251288	0.0631
19	H	0.166117	0.288058	0.094459
20	C	0.124684	0.274539	0.174375
21	H	0.118448	0.263282	0.210504
22	H	0.140966	0.293419	0.183205
23	C	0.145597	0.452706	0.977074
24	C	0.169774	0.478639	0.293802
25	C	0.134858	0.435712	0.260247
26	C	0.119874	0.45854	0.21924
27	H	0.11775	0.417654	0.270981
28	H	0.154926	0.423786	0.242816
29	C	0.14495	0.485253	0.207372
30	C	0.156063	0.004109	0.256808
31	H	0.165438	0.474629	0.188546
32	H	0.134514	0.501801	0.180229
33	H	0.189955	0.468037	0.274129
34	H	0.178586	0.489114	0.99567
35	C	0.125926	0.019841	0.2798
36	C	0.09998	0.99493	0.293159
37	H	0.117105	0.037135	0.252227
38	H	0.131727	0.032982	0.314545
39	C	0.090905	0.474138	0.246171
40	H	0.078616	0.488606	0.218467
41	H	0.073921	0.455931	0.25788
42	C	0.115838	0.47113	0.999282
43	H	0.123097	0.483833	0.03367
44	H	0.097875	0.454162	0.010832
45	C	0.195799	0.343287	0.228301
46	C	0.223704	0.321111	0.212261
47	C	0.180165	0.354622	0.176896
48	C	0.203507	0.371784	0.138833
49	H	0.161274	0.370641	0.186706
50	H	0.16974	0.334591	0.156965
51	C	0.231586	0.348375	0.12791
52	C	0.249386	0.337399	0.178123
53	H	0.222517	0.327798	0.107268
54	H	0.248519	0.360055	0.10281
55	H	0.21475	0.300745	0.190962
56	H	0.233947	0.312108	0.247534
57	C	0.262202	0.367826	0.20521
58	C	0.235091	0.391548	0.219448
59	H	0.279402	0.379521	0.180308
60	H	0.274936	0.361099	0.239824
61	C	0.217303	0.400277	0.169179
62	H	0.234398	0.412333	0.144848
63	H	0.198224	0.416988	0.177674
64	C	0.211373	0.373155	0.254667
65	H	0.223126	0.365454	0.289658
66	H	0.19343	0.389972	0.266007
67	C	0.040156	0.394963	0.063661
68	C	0.01182	0.417103	0.049431
69	C	0.055501	0.384743	0.011817
70	C	0.031908	0.367453	0.307684
71	H	0.074922	0.36897	0.020778
72	H	0.06539	0.405459	0.992666
73	C	0.003387	0.390409	0.297989
74	C	0.485955	0.40087	0.015678
75	H	0.011804	0.411236	0.277287
76	H	0.986622	0.378282	0.273148
77	H	0.020009	0.437758	0.028066
78	H	0.002123	0.425634	0.085414
79	C	0.47371	0.370248	0.042535
80	C	0.501283	0.346713	0.055214
81	H	0.456295	0.358566	0.018013
82	H	0.461383	0.376808	0.077634
83	C	0.018692	0.338545	0.004332
84	H	0.001491	0.326479	0.313522
85	H	0.038074	0.322011	0.012013
86	C	0.025331	0.364757	0.089948
87	H	0.014173	0.371973	0.125702
88	H	0.043488	0.347777	0.099667
89	C	0.340059	0.03734	0.00698
90	C	0.312649	0.014445	0.323578
91	C	0.352288	0.054708	0.29093
92	C	0.36488	0.031652	0.247936
93	H	0.371106	0.070772	0.302695
94	H	0.333379	0.069166	0.274829
95	C	0.33634	0.009024	0.234562
96	C	0.322947	0.490135	0.282482
97	H	0.31793	0.023782	0.217704
98	H	0.343353	0.992	0.205335
99	H	0.293148	0.027359	0.306134
100	H	0.303351	0.002381	0.024034
101	C	0.351418	0.470511	0.303103
102	C	0.38044	0.491071	0.318379
103	H	0.356931	0.452888	0.273967
104	H	0.345463	0.457472	0.337635
105	C	0.392028	0.012531	0.273762
106	H	0.40363	0.998409	0.244951
107	H	0.410447	0.028606	0.28774
108	C	0.367975	0.015113	0.027024
109	H	0.359932	0.002234	0.060774
110	H	0.388011	0.029486	0.038868
111	C	0.39613	0.204706	0.181908
112	C	0.423878	0.226562	0.163346
113	C	0.386685	0.183957	0.133238
114	C	0.375144	0.204142	0.085756
115	H	0.368008	0.167461	0.142836
116	H	0.40703	0.169712	0.122295
117	C	0.404053	0.226065	0.07223
118	C	0.414625	0.248048	0.117725
119	H	0.423486	0.210574	0.061235
120	H	0.398956	0.241052	0.039354
121	H	0.444429	0.21206	0.153306
122	H	0.431286	0.242472	0.193662
123	C	0.384684	0.268235	0.131618
124	C	0.355969	0.247892	0.14941
125	H	0.378812	0.282703	0.098372
126	H	0.389209	0.284639	0.162807
127	C	0.346546	0.223834	0.107061
128	H	0.335144	0.236569	0.076484
129	H	0.328273	0.207863	0.121586
130	C	0.367588	0.226965	0.195624
131	H	0.374242	0.242096	0.227699
132	H	0.348013	0.212227	0.207862
133	C	0.451477	0.088447	0.093041
134	C	0.46849	0.061932	0.061656
135	C	0.433046	0.109178	0.05287
136	C	0.455064	0.124298	0.344457
137	H	0.420645	0.128013	0.072645
138	H	0.415081	0.094666	0.034256
139	C	0.473597	0.096266	0.317213
140	C	0.993103	0.074422	0.022485
141	H	0.456905	0.081555	0.295989
142	H	0.489556	0.106701	0.289093
143	H	0.451418	0.047824	0.040028
144	H	0.479362	0.046345	0.089594
145	C	0.017462	0.095767	0.050812
146	C	0.002057	0.124849	0.077221
147	H	0.035163	0.102059	0.022474
148	H	0.030324	0.083007	0.080617
149	C	0.480669	0.143715	0.039796
150	H	0.494932	0.154666	0.343274
151	H	0.469471	0.162731	0.061784
152	C	0.478271	0.110278	0.118209
153	H	0.49151	0.096463	0.14625
154	H	0.467179	0.129605	0.139265
155	C	0.293315	0.150055	0.255358
156	C	0.269684	0.176834	0.238564
157	C	0.311572	0.139106	0.20607
158	C	0.289539	0.126703	0.161664
159	H	0.32797	0.120553	0.217409
160	H	0.325445	0.158832	0.191751
161	C	0.266288	0.154921	0.148856
162	C	0.246116	0.166503	0.196407
163	H	0.280697	0.174199	0.133889
164	H	0.24984	0.148428	0.118577
165	H	0.282278	0.196849	0.221929
166	H	0.257035	0.185403	0.272291
167	C	0.227087	0.13684	0.214114
168	C	0.248497	0.108477	0.229659
169	H	0.210719	0.130845	0.183311
170	H	0.212614	0.141681	0.247595
171	C	0.271123	0.09842	0.185653
172	H	0.25806	0.086626	0.155785
173	H	0.287654	0.080447	0.199737
174	C	0.271449	0.121369	0.273162
175	H	0.257732	0.128596	0.306514
176	H	0.286446	0.101913	0.285005
177	C	0.079019	0.354414	0.248918
178	C	0.093369	0.33454	0.212586
179	C	0.076396	0.31186	0.184068
180	C	0.043087	0.313334	0.190669
181	C	0.028506	0.334334	0.225151
182	C	0.046276	0.353772	0.258766
183	H	0.028461	0.298691	0.171003
184	H	0.116927	0.336886	0.207371
185	H	0.093257	0.368826	0.269467
186	H	0.004534	0.332855	0.228732
187	C	0.15635	0.387023	0.080062
188	C	0.142797	0.407444	0.04327
189	C	0.160939	0.429152	0.014508
190	C	0.194134	0.426132	0.021888
191	C	0.207671	0.4047	0.056601
192	C	0.189126	0.386071	0.090174
193	H	0.209719	0.439915	0.002613
194	H	0.119041	0.406692	0.038231
195	H	0.141722	0.373046	0.100582
196	H	0.231689	0.405215	0.060147
197	C	0.132738	0.328611	0.000677
198	C	0.151439	0.343233	0.296139
199	C	0.172855	0.326302	0.264952
200	C	0.172021	0.293034	0.27276
201	C	0.151807	0.278226	0.974917
202	C	0.132844	0.295629	0.00962
203	H	0.186477	0.278483	0.252702
204	H	0.149524	0.367035	0.292355
205	H	0.11998	0.342973	0.023503
206	H	0.153502	0.254254	0.978256
207	C	0.104374	0.409301	0.166697
208	C	0.084868	0.394436	0.130414
209	C	0.063989	0.411458	0.09867
210	C	0.067009	0.444686	0.102531
211	C	0.089028	0.459653	0.13475
212	C	0.106505	0.442434	0.171589
213	H	0.052279	0.458885	0.082811
214	H	0.085764	0.370582	0.128438
215	H	0.116254	0.395267	0.190957
216	H	0.088915	0.483772	0.13554
217	C	0.336484	0.10075	0.115125
218	C	0.347692	0.077625	0.080594
219	C	0.327793	0.062095	0.045198
220	C	0.296661	0.074706	0.043323
221	C	0.286212	0.099671	0.074482
222	C	0.30513	0.112003	0.114495
223	H	0.2803	0.066046	0.018904
224	H	0.370903	0.07215	0.081803
225	H	0.351978	0.11082	0.139506
226	H	0.262864	0.105562	0.07194
227	C	0.412259	0.135853	0.277553
228	C	0.397415	0.154909	0.239989
229	C	0.407075	0.186132	0.229164
230	C	0.427654	0.198916	0.266535
231	C	0.442857	0.179956	0.303012
232	C	0.437269	0.146851	0.308118
233	H	0.433193	0.22231	0.267176
234	H	0.379724	0.1455	0.21911
235	H	0.405083	0.113282	0.282793
236	H	0.458729	0.191592	0.325267
237	C	0.388642	0.078878	0.199632
238	C	0.411317	0.091842	0.165903
239	C	0.428325	0.073071	0.130999
240	C	0.419386	0.040521	0.131171
241	C	0.395497	0.028165	0.162884
242	C	0.380686	0.046642	0.20111
243	H	0.429802	0.024612	0.107553
244	H	0.414965	0.115567	0.165947
245	H	0.37609	0.093541	0.221949
246	H	0.391203	0.004424	0.160912
247	C	0.356281	0.155136	0.032208
248	C	0.335631	0.142879	0.327527
249	C	0.317316	0.162548	0.295083
250	C	0.325851	0.194966	0.29835
251	C	0.349209	0.206611	0.997969
252	C	0.362087	0.187845	0.037686
253	H	0.315031	0.211736	0.277066
254	H	0.3332	0.119131	0.324932
255	H	0.367127	0.139996	0.056411
256	H	0.352833	0.230486	0.997377
257	C	0.051454	0.190489	0.141903
258	C	0.031363	0.163968	0.136874
259	C	0.028518	0.148163	0.089822
260	C	0.048819	0.159224	0.050089
261	C	0.067434	0.186246	0.054429
262	C	0.06808	0.204023	0.099684
263	H	0.047969	0.150033	0.347521
264	H	0.01791	0.15713	0.167301
265	H	0.052848	0.200207	0.177334
266	H	0.079707	0.192917	0.022826
267	C	0.195759	0.044962	0.292959
268	C	0.218545	0.068962	0.287065
269	C	0.225777	0.081059	0.23846
270	C	0.207683	0.068529	0.197158
271	C	0.187032	0.043014	0.202391
272	C	0.180631	0.030021	0.25062
273	H	0.208784	0.078061	0.161465
274	H	0.228304	0.078786	0.318899
275	H	0.190079	0.039007	0.996157
276	H	0.175611	0.035425	0.170427
277	C	0.291718	0.299513	0.213101
278	C	0.316116	0.277297	0.206906
279	C	0.328606	0.270553	0.158224
280	C	0.31578	0.288193	0.116897
281	C	0.290055	0.308618	0.122594
282	C	0.276803	0.314651	0.17096
283	H	0.324944	0.286527	0.081001
284	H	0.325267	0.267054	0.23885
285	H	0.285007	0.304339	0.249635
286	H	0.281971	0.319532	0.090515
287	C	0.444204	0.439844	0.051374
288	C	0.419797	0.462146	0.044601
289	C	0.40678	0.467578	0.329302
290	C	0.418143	0.447822	0.289285
291	C	0.443587	0.42733	0.295238
292	C	0.458261	0.423363	0.009624
293	H	0.408377	0.448242	0.253694
294	H	0.411012	0.473592	0.07574
295	H	0.451647	0.436094	0.087844
296	H	0.450482	0.415102	0.263714
297	C	0.203383	0.237245	0.135023
298	C	0.226931	0.215046	0.146528
299	C	0.223397	0.193817	0.187599
300	C	0.198111	0.200555	0.221707
301	C	0.173206	0.220644	0.207756
302	C	0.174003	0.23785	0.161649
303	H	0.195707	0.188974	0.255522
304	H	0.246002	0.213922	0.122834
305	H	0.207425	0.250659	0.10346
306	H	0.153487	0.220828	0.230216
307	C	0.053189	0.032185	0.272146
308	C	0.025394	0.048446	0.285267
309	C	0.013296	0.047371	0.002068
310	C	0.029929	0.027445	0.036922
311	C	0.058084	0.01212	0.023753
312	C	0.07018	0.012992	0.307471
313	H	0.025185	0.027719	0.074974
314	H	0.015992	0.063371	0.258756
315	H	0.061711	0.036042	0.236264
316	H	0.071489	0.003115	0.05223
317	C	0.486803	0.287068	0.055034
318	C	0.464001	0.264431	0.067654
319	C	0.442387	0.269802	0.10765
320	C	0.449211	0.295865	0.140096
321	C	0.470109	0.31974	0.125061
322	C	0.487517	0.317153	0.079356
323	H	0.437186	0.299554	0.17322
324	H	0.462715	0.244757	0.045354
325	H	0.500357	0.281884	0.357389
326	H	0.470563	0.34005	0.146107
327	C	0.250754	0.451158	0.219426
328	C	0.273415	0.47385	0.232847
329	C	0.295099	0.468209	0.272672
330	C	0.287968	0.441919	0.304574
331	C	0.26703	0.418134	0.28906
332	C	0.249594	0.420946	0.243436
333	H	0.299561	0.437942	0.00459
334	H	0.274594	0.493857	0.211264
335	H	0.237063	0.456671	0.188752
336	H	0.26638	0.397765	0.309949
337	C	0.093516	0.288289	0.482461
338	C	0.072257	0.25902	0.469998
339	C	0.102816	0.303701	0.430191
340	C	0.120141	0.280504	0.392313
341	H	0.118099	0.323743	0.438533
342	H	0.081756	0.312722	0.411245
343	C	0.097811	0.250978	0.384441
344	C	0.088938	0.233331	0.436367
345	H	0.076261	0.25846	0.364787
346	H	0.109978	0.234653	0.358989
347	H	0.050906	0.266231	0.449554
348	H	0.064832	0.249535	0.506702
349	C	0.120541	0.222542	0.46184
350	C	0.143362	0.250917	0.472736
351	H	0.132374	0.205341	0.437092
352	H	0.115148	0.210302	0.497568
353	C	0.149918	0.268249	0.421153
354	H	0.161874	0.251288	0.396434
355	H	0.166117	0.288058	0.427794
356	C	0.124684	0.274539	0.507709
357	H	0.118448	0.263282	0.543837
358	H	0.140966	0.293419	0.516538
359	C	0.145597	0.452706	0.310409
360	C	0.169774	0.478639	0.627133
361	C	0.134858	0.435712	0.593579
362	C	0.119874	0.45854	0.552575
363	H	0.11775	0.417654	0.604314
364	H	0.154926	0.423786	0.576149
365	C	0.14495	0.485253	0.540703
366	C	0.156063	0.004109	0.59014
367	H	0.165438	0.474629	0.521879
368	H	0.134514	0.501801	0.51356
369	H	0.189955	0.468037	0.607463
370	H	0.178586	0.489114	0.329002
371	C	0.125926	0.019841	0.613131
372	C	0.09998	0.99493	0.626493
373	H	0.117105	0.037135	0.585558
374	H	0.131727	0.032982	0.647876
375	C	0.090905	0.474138	0.579504
376	H	0.078616	0.488606	0.551801
377	H	0.073921	0.455931	0.591211
378	C	0.115838	0.47113	0.332615
379	H	0.123097	0.483833	0.367002
380	H	0.097875	0.454162	0.344165
381	C	0.195799	0.343287	0.561632
382	C	0.223704	0.321111	0.545594
383	C	0.180165	0.354622	0.510229
384	C	0.203507	0.371784	0.472164
385	H	0.161274	0.370641	0.520037
386	H	0.16974	0.334591	0.490298
387	C	0.231586	0.348375	0.461242
388	C	0.249386	0.337399	0.511456
389	H	0.222517	0.327798	0.440599
390	H	0.248519	0.360055	0.436142
391	H	0.21475	0.300745	0.524296
392	H	0.233947	0.312108	0.580869
393	C	0.262202	0.367826	0.538542
394	C	0.235091	0.391548	0.55278
395	H	0.279402	0.379521	0.513641
396	H	0.274936	0.361099	0.573157
397	C	0.217303	0.400277	0.502513
398	H	0.234398	0.412333	0.478179
399	H	0.198224	0.416988	0.511006
400	C	0.211373	0.373155	0.588001
401	H	0.223126	0.365454	0.62299
402	H	0.19343	0.389972	0.599339
403	C	0.040156	0.394963	0.396995
404	C	0.01182	0.417103	0.382764
405	C	0.055501	0.384743	0.34515
406	C	0.031908	0.367453	0.641018
407	H	0.074922	0.36897	0.354111
408	H	0.06539	0.405459	0.326002
409	C	0.003387	0.390409	0.631323
410	C	0.485955	0.40087	0.349011
411	H	0.011804	0.411236	0.610619
412	H	0.986622	0.378282	0.606483
413	H	0.020009	0.437758	0.361399
414	H	0.002123	0.425634	0.418747
415	C	0.47371	0.370248	0.375868
416	C	0.501283	0.346713	0.388547
417	H	0.456295	0.358566	0.351346
418	H	0.461383	0.376808	0.410967
419	C	0.018692	0.338545	0.337664
420	H	0.001491	0.326479	0.646854
421	H	0.038074	0.322011	0.345346
422	C	0.025331	0.364757	0.42328
423	H	0.014173	0.371973	0.459035
424	H	0.043488	0.347777	0.433001
425	C	0.340059	0.03734	0.340313
426	C	0.312649	0.014445	0.656911
427	C	0.352288	0.054708	0.624263
428	C	0.36488	0.031652	0.581269
429	H	0.371106	0.070772	0.636027
430	H	0.333379	0.069166	0.608164
431	C	0.33634	0.009024	0.567896
432	C	0.322947	0.490135	0.615815
433	H	0.31793	0.023782	0.551034
434	H	0.343353	0.992	0.538668
435	H	0.293148	0.027359	0.639466
436	H	0.303351	0.002381	0.357367
437	C	0.351418	0.470511	0.636435
438	C	0.38044	0.491071	0.651711
439	H	0.356931	0.452888	0.607299
440	H	0.345463	0.457472	0.670966
441	C	0.392028	0.012531	0.607097
442	H	0.40363	0.998409	0.578284
443	H	0.410447	0.028606	0.621072
444	C	0.367975	0.015113	0.360357
445	H	0.359932	0.002234	0.394109
446	H	0.388011	0.029486	0.372201
447	C	0.39613	0.204706	0.515242
448	C	0.423878	0.226562	0.49668
449	C	0.386685	0.183957	0.466571
450	C	0.375144	0.204142	0.41909
451	H	0.368008	0.167461	0.47617
452	H	0.40703	0.169712	0.455626
453	C	0.404053	0.226065	0.405565
454	C	0.414625	0.248048	0.451059
455	H	0.423486	0.210574	0.394566
456	H	0.398956	0.241052	0.372686
457	H	0.444429	0.21206	0.486639
458	H	0.431286	0.242472	0.526995
459	C	0.384684	0.268235	0.464951
460	C	0.355969	0.247892	0.482743
461	H	0.378812	0.282703	0.431705
462	H	0.389209	0.284639	0.496139
463	C	0.346546	0.223834	0.440393
464	H	0.335144	0.236569	0.409815
465	H	0.328273	0.207863	0.454917
466	C	0.367588	0.226965	0.528958
467	H	0.374242	0.242096	0.561034
468	H	0.348013	0.212227	0.541195
469	C	0.451477	0.088447	0.426372
470	C	0.46849	0.061932	0.39499
471	C	0.433046	0.109178	0.386202
472	C	0.455064	0.124298	0.67779
473	H	0.420645	0.128013	0.405976
474	H	0.415081	0.094666	0.367589
475	C	0.473597	0.096266	0.650548
476	C	0.993103	0.074422	0.355818
477	H	0.456905	0.081555	0.629322
478	H	0.489556	0.106701	0.622425
479	H	0.451418	0.047824	0.373361
480	H	0.479362	0.046345	0.422925
481	C	0.017462	0.095767	0.384144
482	C	0.002057	0.124849	0.410555
483	H	0.035163	0.102059	0.355807
484	H	0.030324	0.083007	0.413951
485	C	0.480669	0.143715	0.373129
486	H	0.494932	0.154666	0.676608
487	H	0.469471	0.162731	0.395115
488	C	0.478271	0.110278	0.451544
489	H	0.49151	0.096463	0.479582
490	H	0.467179	0.129605	0.472598
491	C	0.293315	0.150055	0.588691
492	C	0.269684	0.176834	0.571895
493	C	0.311572	0.139106	0.539403
494	C	0.289539	0.126703	0.494995
495	H	0.32797	0.120553	0.550741
496	H	0.325445	0.158832	0.525085
497	C	0.266288	0.154921	0.48219
498	C	0.246116	0.166503	0.529739
499	H	0.280697	0.174199	0.467223
500	H	0.24984	0.148428	0.45191
501	H	0.282278	0.196849	0.555262
502	H	0.257035	0.185403	0.605625
503	C	0.227087	0.13684	0.547447
504	C	0.248497	0.108477	0.562993
505	H	0.210719	0.130845	0.516645
506	H	0.212614	0.141681	0.58093
507	C	0.271123	0.09842	0.518985
508	H	0.25806	0.086626	0.489117
509	H	0.287654	0.080447	0.533071
510	C	0.271449	0.121369	0.606494
511	H	0.257732	0.128596	0.639847
512	H	0.286446	0.101913	0.618339
513	C	0.079019	0.354414	0.582252
514	C	0.093369	0.33454	0.545918
515	C	0.076396	0.31186	0.517399
516	C	0.043087	0.313334	0.524002
517	C	0.028506	0.334334	0.558483
518	C	0.046276	0.353772	0.592099
519	H	0.028461	0.298691	0.504335
520	H	0.116927	0.336886	0.540703
521	H	0.093257	0.368826	0.6028
522	H	0.004534	0.332855	0.562063
523	C	0.15635	0.387023	0.413395
524	C	0.142797	0.407444	0.376603
525	C	0.160939	0.429152	0.347841
526	C	0.194134	0.426132	0.355221
527	C	0.207671	0.4047	0.389935
528	C	0.189126	0.386071	0.423505
529	H	0.209719	0.439915	0.335946
530	H	0.119041	0.406692	0.371564
531	H	0.141722	0.373046	0.433916
532	H	0.231689	0.405215	0.39348
533	C	0.132738	0.328611	0.33401
534	C	0.151439	0.343233	0.62947
535	C	0.172855	0.326302	0.598287
536	C	0.172021	0.293034	0.606094
537	C	0.151807	0.278226	0.308251
538	C	0.132844	0.295629	0.342952
539	H	0.186477	0.278483	0.586034
540	H	0.149524	0.367035	0.625689
541	H	0.11998	0.342973	0.356835
542	H	0.153502	0.254254	0.31159
543	C	0.104374	0.409301	0.500031
544	C	0.084868	0.394436	0.463746
545	C	0.063989	0.411458	0.432002
546	C	0.067009	0.444686	0.435864
547	C	0.089028	0.459653	0.468085
548	C	0.106505	0.442434	0.504922
549	H	0.052279	0.458885	0.416144
550	H	0.085764	0.370582	0.461772
551	H	0.116254	0.395267	0.524288
552	H	0.088915	0.483772	0.468874
553	C	0.336484	0.10075	0.44846
554	C	0.347692	0.077625	0.413925
555	C	0.327793	0.062095	0.378531
556	C	0.296661	0.074706	0.376656
557	C	0.286212	0.099671	0.407814
558	C	0.30513	0.112003	0.447827
559	H	0.2803	0.066046	0.352237
560	H	0.370903	0.07215	0.415137
561	H	0.351978	0.11082	0.472839
562	H	0.262864	0.105562	0.405275
563	C	0.412259	0.135853	0.610886
564	C	0.397415	0.154909	0.57332
565	C	0.407075	0.186132	0.562498
566	C	0.427654	0.198916	0.599869
567	C	0.442857	0.179956	0.636344
568	C	0.437269	0.146851	0.641452
569	H	0.433193	0.22231	0.600509
570	H	0.379724	0.1455	0.552445
571	H	0.405083	0.113282	0.616124
572	H	0.458729	0.191592	0.658599
573	C	0.388642	0.078878	0.532965
574	C	0.411317	0.091842	0.499234
575	C	0.428325	0.073071	0.464334
576	C	0.419386	0.040521	0.464505
577	C	0.395497	0.028165	0.496219
578	C	0.380686	0.046642	0.534444
579	H	0.429802	0.024612	0.440885
580	H	0.414965	0.115567	0.49928
581	H	0.37609	0.093541	0.555281
582	H	0.391203	0.004424	0.494244
583	C	0.356281	0.155136	0.365541
584	C	0.335631	0.142879	0.66086
585	C	0.317316	0.162548	0.628414
586	C	0.325851	0.194966	0.631681
587	C	0.349209	0.206611	0.331302
588	C	0.362087	0.187845	0.371019
589	H	0.315031	0.211736	0.610398
590	H	0.3332	0.119131	0.658264
591	H	0.367127	0.139996	0.389744
592	H	0.352833	0.230486	0.33071
593	C	0.051454	0.190489	0.475236
594	C	0.031363	0.163968	0.470208
595	C	0.028518	0.148163	0.423154
596	C	0.048819	0.159224	0.383423
597	C	0.067434	0.186246	0.387762
598	C	0.06808	0.204023	0.433016
599	H	0.047969	0.150033	0.680855
600	H	0.01791	0.15713	0.500633
601	H	0.052848	0.200207	0.510667
602	H	0.079707	0.192917	0.356159
603	C	0.195759	0.044962	0.626291
604	C	0.218545	0.068962	0.620397
605	C	0.225777	0.081059	0.571792
606	C	0.207683	0.068529	0.53049
607	C	0.187032	0.043014	0.535725
608	C	0.180631	0.030021	0.583953
609	H	0.208784	0.078061	0.494797
610	H	0.228304	0.078786	0.652233
611	H	0.190079	0.039007	0.32949
612	H	0.175611	0.035425	0.503759
613	C	0.291718	0.299513	0.546433
614	C	0.316116	0.277297	0.540238
615	C	0.328606	0.270553	0.491556
616	C	0.31578	0.288193	0.450228
617	C	0.290055	0.308618	0.455928
618	C	0.276803	0.314651	0.504293
619	H	0.324944	0.286527	0.414333
620	H	0.325267	0.267054	0.572184
621	H	0.285007	0.304339	0.582969
622	H	0.281971	0.319532	0.423848
623	C	0.444204	0.439844	0.384708
624	C	0.419797	0.462146	0.377934
625	C	0.40678	0.467578	0.662637
626	C	0.418143	0.447822	0.62262
627	C	0.443587	0.42733	0.628571
628	C	0.458261	0.423363	0.342957
629	H	0.408377	0.448242	0.587025
630	H	0.411012	0.473592	0.409072
631	H	0.451647	0.436094	0.421176
632	H	0.450482	0.415102	0.597048
633	C	0.203383	0.237245	0.468355
634	C	0.226931	0.215046	0.479861
635	C	0.223397	0.193817	0.520933
636	C	0.198111	0.200555	0.555041
637	C	0.173206	0.220644	0.541088
638	C	0.174003	0.23785	0.494984
639	H	0.195707	0.188974	0.588855
640	H	0.246002	0.213922	0.456168
641	H	0.207425	0.250659	0.436794
642	H	0.153487	0.220828	0.56355
643	C	0.053189	0.032185	0.605476
644	C	0.025394	0.048446	0.618598
645	C	0.013296	0.047371	0.335401
646	C	0.029929	0.027445	0.370255
647	C	0.058084	0.01212	0.357085
648	C	0.07018	0.012992	0.640804
649	H	0.025185	0.027719	0.408306
650	H	0.015992	0.063371	0.592088
651	H	0.061711	0.036042	0.569596
652	H	0.071489	0.003115	0.385562
653	C	0.486803	0.287068	0.388368
654	C	0.464001	0.264431	0.400986
655	C	0.442387	0.269802	0.440984
656	C	0.449211	0.295865	0.473429
657	C	0.470109	0.31974	0.458394
658	C	0.487517	0.317153	0.41269
659	H	0.437186	0.299554	0.506554
660	H	0.462715	0.244757	0.378687
661	H	0.500357	0.281884	0.690721
662	H	0.470563	0.34005	0.479437
663	C	0.250754	0.451158	0.552757
664	C	0.273415	0.47385	0.56618
665	C	0.295099	0.468209	0.606006
666	C	0.287968	0.441919	0.637907
667	C	0.26703	0.418134	0.622391
668	C	0.249594	0.420946	0.576767
669	H	0.299561	0.437942	0.337923
670	H	0.274594	0.493857	0.544596
671	H	0.237063	0.456671	0.522085
672	H	0.26638	0.397765	0.643282
673	C	0.093516	0.288289	0.815792
674	C	0.072257	0.25902	0.80333
675	C	0.102816	0.303701	0.763526
676	C	0.120141	0.280504	0.725645
677	H	0.118099	0.323743	0.771867
678	H	0.081756	0.312722	0.744576
679	C	0.097811	0.250978	0.717776
680	C	0.088938	0.233331	0.769698
681	H	0.076261	0.25846	0.69812
682	H	0.109978	0.234653	0.692322
683	H	0.050906	0.266231	0.782885
684	H	0.064832	0.249535	0.840037
685	C	0.120541	0.222542	0.795171
686	C	0.143362	0.250917	0.806067
687	H	0.132374	0.205341	0.770426
688	H	0.115148	0.210302	0.830899
689	C	0.149918	0.268249	0.754484
690	H	0.161874	0.251288	0.729766
691	H	0.166117	0.288058	0.761125
692	C	0.124684	0.274539	0.84104
693	H	0.118448	0.263282	0.877168
694	H	0.140966	0.293419	0.849873
695	C	0.145597	0.452706	0.643743
696	C	0.169774	0.478639	0.960468
697	C	0.134858	0.435712	0.926913
698	C	0.119874	0.45854	0.885906
699	H	0.11775	0.417654	0.937649
700	H	0.154926	0.423786	0.90948
701	C	0.14495	0.485253	0.874038
702	C	0.156063	0.004109	0.923475
703	H	0.165438	0.474629	0.85521
704	H	0.134514	0.501801	0.846895
705	H	0.189955	0.468037	0.940794
706	H	0.178586	0.489114	0.662335
707	C	0.125926	0.019841	0.946466
708	C	0.09998	0.99493	0.959824
709	H	0.117105	0.037135	0.918893
710	H	0.131727	0.032982	0.981211
711	C	0.090905	0.474138	0.912835
712	H	0.078616	0.488606	0.885132
713	H	0.073921	0.455931	0.924546
714	C	0.115838	0.47113	0.665949
715	H	0.123097	0.483833	0.700335
716	H	0.097875	0.454162	0.677496
717	C	0.195799	0.343287	0.894967
718	C	0.223704	0.321111	0.878925
719	C	0.180165	0.354622	0.84356
720	C	0.203507	0.371784	0.805499
721	H	0.161274	0.370641	0.853372
722	H	0.16974	0.334591	0.82363
723	C	0.231586	0.348375	0.794577
724	C	0.249386	0.337399	0.844787
725	H	0.222517	0.327798	0.773934
726	H	0.248519	0.360055	0.769477
727	H	0.21475	0.300745	0.857627
728	H	0.233947	0.312108	0.9142
729	C	0.262202	0.367826	0.871877
730	C	0.235091	0.391548	0.886111
731	H	0.279402	0.379521	0.846975
732	H	0.274936	0.361099	0.906488
733	C	0.217303	0.400277	0.835844
734	H	0.234398	0.412333	0.811514
735	H	0.198224	0.416988	0.844341
736	C	0.211373	0.373155	0.921332
737	H	0.223126	0.365454	0.956325
738	H	0.19343	0.389972	0.932674
739	C	0.040156	0.394963	0.730326
740	C	0.01182	0.417103	0.716095
741	C	0.055501	0.384743	0.678484
742	C	0.031908	0.367453	0.974349
743	H	0.074922	0.36897	0.687442
744	H	0.06539	0.405459	0.659335
745	C	0.003387	0.390409	0.964654
746	C	0.485955	0.40087	0.682346
747	H	0.011804	0.411236	0.943954
748	H	0.986622	0.378282	0.939814
749	H	0.020009	0.437758	0.694731
750	H	0.002123	0.425634	0.752078
751	C	0.47371	0.370248	0.709199
752	C	0.501283	0.346713	0.721878
753	H	0.456295	0.358566	0.684679
754	H	0.461383	0.376808	0.744301
755	C	0.018692	0.338545	0.670997
756	H	0.001491	0.326479	0.980189
757	H	0.038074	0.322011	0.678678
758	C	0.025331	0.364757	0.756615
759	H	0.014173	0.371973	0.792366
760	H	0.043488	0.347777	0.766332
761	C	0.340059	0.03734	0.673646
762	C	0.312649	0.014445	0.990242
763	C	0.352288	0.054708	0.957594
764	C	0.36488	0.031652	0.9146
765	H	0.371106	0.070772	0.969362
766	H	0.333379	0.069166	0.941495
767	C	0.33634	0.009024	0.901227
768	C	0.322947	0.490135	0.949146
769	H	0.31793	0.023782	0.884369
770	H	0.343353	0.992	0.871999
771	H	0.293148	0.027359	0.972801
772	H	0.303351	0.002381	0.690698
773	C	0.351418	0.470511	0.96977
774	C	0.38044	0.491071	0.985046
775	H	0.356931	0.452888	0.940634
776	H	0.345463	0.457472	0.004302
777	C	0.392028	0.012531	0.940428
778	H	0.40363	0.998409	0.911615
779	H	0.410447	0.028606	0.954407
780	C	0.367975	0.015113	0.693691
781	H	0.359932	0.002234	0.72744
782	H	0.388011	0.029486	0.705535
783	C	0.39613	0.204706	0.848573
784	C	0.423878	0.226562	0.830011
785	C	0.386685	0.183957	0.799902
786	C	0.375144	0.204142	0.752421
787	H	0.368008	0.167461	0.809501
788	H	0.40703	0.169712	0.788961
789	C	0.404053	0.226065	0.738896
790	C	0.414625	0.248048	0.784391
791	H	0.423486	0.210574	0.727901
792	H	0.398956	0.241052	0.706019
793	H	0.444429	0.21206	0.81997
794	H	0.431286	0.242472	0.860326
795	C	0.384684	0.268235	0.798282
796	C	0.355969	0.247892	0.816074
797	H	0.378812	0.282703	0.765036
798	H	0.389209	0.284639	0.829474
799	C	0.346546	0.223834	0.773728
800	H	0.335144	0.236569	0.74315
801	H	0.328273	0.207863	0.788252
802	C	0.367588	0.226965	0.862289
803	H	0.374242	0.242096	0.894365
804	H	0.348013	0.212227	0.874526
805	C	0.451477	0.088447	0.759707
806	C	0.46849	0.061932	0.728321
807	C	0.433046	0.109178	0.719534
808	C	0.455064	0.124298	0.011124
809	H	0.420645	0.128013	0.739311
810	H	0.415081	0.094666	0.700922
811	C	0.473597	0.096266	0.983879
812	C	0.993103	0.074422	0.68915
813	H	0.456905	0.081555	0.962657
814	H	0.489556	0.106701	0.95576
815	H	0.451418	0.047824	0.706694
816	H	0.479362	0.046345	0.75626
817	C	0.017462	0.095767	0.717479
818	C	0.002057	0.124849	0.743886
819	H	0.035163	0.102059	0.689139
820	H	0.030324	0.083007	0.747283
821	C	0.480669	0.143715	0.706462
822	H	0.494932	0.154666	0.009941
823	H	0.469471	0.162731	0.72845
824	C	0.478271	0.110278	0.784875
825	H	0.49151	0.096463	0.812917
826	H	0.467179	0.129605	0.805929
827	C	0.293315	0.150055	0.922022
828	C	0.269684	0.176834	0.90523
829	C	0.311572	0.139106	0.872734
830	C	0.289539	0.126703	0.82833
831	H	0.32797	0.120553	0.884076
832	H	0.325445	0.158832	0.858416
833	C	0.266288	0.154921	0.815521
834	C	0.246116	0.166503	0.863071
835	H	0.280697	0.174199	0.800554
836	H	0.24984	0.148428	0.785241
837	H	0.282278	0.196849	0.888593
838	H	0.257035	0.185403	0.938956
839	C	0.227087	0.13684	0.880778
840	C	0.248497	0.108477	0.896324
841	H	0.210719	0.130845	0.849976
842	H	0.212614	0.141681	0.914261
843	C	0.271123	0.09842	0.852316
844	H	0.25806	0.086626	0.822452
845	H	0.287654	0.080447	0.866402
846	C	0.271449	0.121369	0.939829
847	H	0.257732	0.128596	0.973178
848	H	0.286446	0.101913	0.95167
849	C	0.079019	0.354414	0.915584
850	C	0.093369	0.33454	0.879249
851	C	0.076396	0.31186	0.850734
852	C	0.043087	0.313334	0.857333
853	C	0.028506	0.334334	0.891815
854	C	0.046276	0.353772	0.92543
855	H	0.028461	0.298691	0.83767
856	H	0.116927	0.336886	0.874038
857	H	0.093257	0.368826	0.936131
858	H	0.004534	0.332855	0.895398
859	C	0.15635	0.387023	0.746726
860	C	0.142797	0.407444	0.709934
861	C	0.160939	0.429152	0.681175
862	C	0.194134	0.426132	0.688552
863	C	0.207671	0.4047	0.723266
864	C	0.189126	0.386071	0.75684
865	H	0.209719	0.439915	0.669277
866	H	0.119041	0.406692	0.704899
867	H	0.141722	0.373046	0.767247
868	H	0.231689	0.405215	0.726811
869	C	0.132738	0.328611	0.667345
870	C	0.151439	0.343233	0.962805
871	C	0.172855	0.326302	0.931618
872	C	0.172021	0.293034	0.939425
873	C	0.151807	0.278226	0.641586
874	C	0.132844	0.295629	0.676284
875	H	0.186477	0.278483	0.919369
876	H	0.149524	0.367035	0.95902
877	H	0.11998	0.342973	0.690168
878	H	0.153502	0.254254	0.644921
879	C	0.104374	0.409301	0.833362
880	C	0.084868	0.394436	0.797081
881	C	0.063989	0.411458	0.765337
882	C	0.067009	0.444686	0.769195
883	C	0.089028	0.459653	0.801416
884	C	0.106505	0.442434	0.838253
885	H	0.052279	0.458885	0.749478
886	H	0.085764	0.370582	0.795103
887	H	0.116254	0.395267	0.857623
888	H	0.088915	0.483772	0.802205
889	C	0.336484	0.10075	0.781791
890	C	0.347692	0.077625	0.74726
891	C	0.327793	0.062095	0.711863
892	C	0.296661	0.074706	0.709988
893	C	0.286212	0.099671	0.741149
894	C	0.30513	0.112003	0.781162
895	H	0.2803	0.066046	0.685571
896	H	0.370903	0.07215	0.748468
897	H	0.351978	0.11082	0.80617
898	H	0.262864	0.105562	0.738606
899	C	0.412259	0.135853	0.944217
900	C	0.397415	0.154909	0.906655
901	C	0.407075	0.186132	0.895829
902	C	0.427654	0.198916	0.9332
903	C	0.442857	0.179956	0.969679
904	C	0.437269	0.146851	0.974783
905	H	0.433193	0.22231	0.93384
906	H	0.379724	0.1455	0.885776
907	H	0.405083	0.113282	0.949459
908	H	0.458729	0.191592	0.991934
909	C	0.388642	0.078878	0.866299
910	C	0.411317	0.091842	0.832569
911	C	0.428325	0.073071	0.797665
912	C	0.419386	0.040521	0.797836
913	C	0.395497	0.028165	0.82955
914	C	0.380686	0.046642	0.867775
915	H	0.429802	0.024612	0.77422
916	H	0.414965	0.115567	0.832611
917	H	0.37609	0.093541	0.888616
918	H	0.391203	0.004424	0.827579
919	C	0.356281	0.155136	0.698875
920	C	0.335631	0.142879	0.994191
921	C	0.317316	0.162548	0.961749
922	C	0.325851	0.194966	0.965016
923	C	0.349209	0.206611	0.664634
924	C	0.362087	0.187845	0.704353
925	H	0.315031	0.211736	0.943733
926	H	0.3332	0.119131	0.991599
927	H	0.367127	0.139996	0.723075
928	H	0.352833	0.230486	0.664043
929	C	0.051454	0.190489	0.808568
930	C	0.031363	0.163968	0.803539
931	C	0.028518	0.148163	0.756489
932	C	0.048819	0.159224	0.716754
933	C	0.067434	0.186246	0.721093
934	C	0.06808	0.204023	0.766351
935	H	0.047969	0.150033	0.014188
936	H	0.01791	0.15713	0.833964
937	H	0.052848	0.200207	0.844002
938	H	0.079707	0.192917	0.689493
939	C	0.195759	0.044962	0.959626
940	C	0.218545	0.068962	0.953728
941	C	0.225777	0.081059	0.905127
942	C	0.207683	0.068529	0.863822
943	C	0.187032	0.043014	0.869056
944	C	0.180631	0.030021	0.917288
945	H	0.208784	0.078061	0.828132
946	H	0.228304	0.078786	0.985564
947	H	0.190079	0.039007	0.662823
948	H	0.175611	0.035425	0.837094
949	C	0.291718	0.299513	0.879768
950	C	0.316116	0.277297	0.873573
951	C	0.328606	0.270553	0.824891
952	C	0.31578	0.288193	0.783563
953	C	0.290055	0.308618	0.789259
954	C	0.276803	0.314651	0.837624
955	H	0.324944	0.286527	0.747668
956	H	0.325267	0.267054	0.905516
957	H	0.285007	0.304339	0.9163
958	H	0.281971	0.319532	0.757179
959	C	0.444204	0.439844	0.718039
960	C	0.419797	0.462146	0.711265
961	C	0.40678	0.467578	0.99597
962	C	0.418143	0.447822	0.955951
963	C	0.443587	0.42733	0.961906
964	C	0.458261	0.423363	0.676288
965	H	0.408377	0.448242	0.92036
966	H	0.411012	0.473592	0.742407
967	H	0.451647	0.436094	0.754511
968	H	0.450482	0.415102	0.930379
969	C	0.203383	0.237245	0.801686
970	C	0.226931	0.215046	0.813196
971	C	0.223397	0.193817	0.854264
972	C	0.198111	0.200555	0.888372
973	C	0.173206	0.220644	0.874423
974	C	0.174003	0.23785	0.828315
975	H	0.195707	0.188974	0.922186
976	H	0.246002	0.213922	0.789499
977	H	0.207425	0.250659	0.770125
978	H	0.153487	0.220828	0.896881
979	C	0.053189	0.032185	0.938811
980	C	0.025394	0.048446	0.951933
981	C	0.013296	0.047371	0.668732
982	C	0.029929	0.027445	0.703587
983	C	0.058084	0.01212	0.69042
984	C	0.07018	0.012992	0.974135
985	H	0.025185	0.027719	0.741641
986	H	0.015992	0.063371	0.925423
987	H	0.061711	0.036042	0.902931
988	H	0.071489	0.003115	0.718897
989	C	0.486803	0.287068	0.721699
990	C	0.464001	0.264431	0.734321
991	C	0.442387	0.269802	0.774315
992	C	0.449211	0.295865	0.806761
993	C	0.470109	0.31974	0.791725
994	C	0.487517	0.317153	0.746021
995	H	0.437186	0.299554	0.839885
996	H	0.462715	0.244757	0.71202
997	H	0.500357	0.281884	0.024056
998	H	0.470563	0.34005	0.812772
999	C	0.250754	0.451158	0.886092
1000	C	0.273415	0.47385	0.899511
1001	C	0.295099	0.468209	0.939337
1002	C	0.287968	0.441919	0.971238
1003	C	0.26703	0.418134	0.955726
1004	C	0.249594	0.420946	0.910102
1005	H	0.299561	0.437942	0.671256
1006	H	0.274594	0.493857	0.87793
1007	H	0.237063	0.456671	0.855419
1008	H	0.26638	0.397765	0.976613
1009	C	0.093516	0.788288	0.149128
1010	C	0.072257	0.75902	0.136665
1011	C	0.102816	0.803701	0.09686
1012	C	0.120141	0.780504	0.058979
1013	H	0.118099	0.823744	0.1052
1014	H	0.081756	0.812723	0.077912
1015	C	0.097811	0.750979	0.051109
1016	C	0.088938	0.73333	0.103033
1017	H	0.076261	0.758458	0.031454
1018	H	0.109978	0.734653	0.025656
1019	H	0.050906	0.766232	0.116219
1020	H	0.064832	0.749535	0.17337
1021	C	0.120541	0.722541	0.128507
1022	C	0.143362	0.750917	0.139403
1023	H	0.132374	0.705341	0.103759
1024	H	0.115148	0.710303	0.164234
1025	C	0.149918	0.768247	0.087819
1026	H	0.161874	0.751288	0.0631
1027	H	0.166117	0.788056	0.094459
1028	C	0.124684	0.774538	0.174375
1029	H	0.118448	0.763283	0.210504
1030	H	0.140966	0.793417	0.183205
1031	C	0.145597	0.952706	0.977074
1032	C	0.169774	0.97864	0.293802
1033	C	0.134858	0.935712	0.260247
1034	C	0.119874	0.95854	0.21924
1035	H	0.11775	0.917654	0.270981
1036	H	0.154926	0.923786	0.242816
1037	C	0.14495	0.985254	0.207372
1038	C	0.156063	0.50411	0.256808
1039	H	0.165438	0.97463	0.188546
1040	H	0.134514	0.001801	0.180229
1041	H	0.189955	0.968035	0.274129
1042	H	0.178586	0.989112	0.99567
1043	C	0.125926	0.51984	0.2798
1044	C	0.09998	0.494932	0.293159
1045	H	0.117105	0.537134	0.252227
1046	H	0.131727	0.53298	0.314545
1047	C	0.090905	0.974136	0.246171
1048	H	0.078616	0.988607	0.218467
1049	H	0.073921	0.955929	0.25788
1050	C	0.115838	0.971128	0.999282
1051	H	0.123097	0.983834	0.03367
1052	H	0.097875	0.95416	0.010832
1053	C	0.195799	0.843288	0.228301
1054	C	0.223704	0.821109	0.212261
1055	C	0.180165	0.854623	0.176896
1056	C	0.203507	0.871785	0.138833
1057	H	0.161274	0.870639	0.186706
1058	H	0.16974	0.83459	0.156965
1059	C	0.231586	0.848373	0.12791
1060	C	0.249386	0.837397	0.178123
1061	H	0.222517	0.827796	0.107268
1062	H	0.248519	0.860055	0.10281
1063	H	0.21475	0.800745	0.190962
1064	H	0.233947	0.812108	0.247534
1065	C	0.262202	0.867827	0.20521
1066	C	0.235091	0.891546	0.219448
1067	H	0.279402	0.879521	0.180308
1068	H	0.274936	0.861099	0.239824
1069	C	0.217303	0.900277	0.169179
1070	H	0.234398	0.912331	0.144848
1071	H	0.198224	0.916986	0.177674
1072	C	0.211373	0.873153	0.254667
1073	H	0.223126	0.865454	0.289658
1074	H	0.19343	0.889972	0.266007
1075	C	0.040156	0.894963	0.063661
1076	C	0.01182	0.917104	0.049431
1077	C	0.055501	0.884743	0.011817
1078	C	0.031908	0.867453	0.307684
1079	H	0.074922	0.868968	0.020778
1080	H	0.06539	0.905459	0.992666
1081	C	0.003387	0.89041	0.297989
1082	C	0.485955	0.90087	0.015678
1083	H	0.011804	0.911237	0.277287
1084	H	0.986622	0.878283	0.273148
1085	H	0.020009	0.937756	0.028066
1086	H	0.002123	0.925632	0.085414
1087	C	0.47371	0.870249	0.042535
1088	C	0.501283	0.846714	0.055214
1089	H	0.456295	0.858566	0.018013
1090	H	0.461383	0.876808	0.077634
1091	C	0.018692	0.838545	0.004332
1092	H	0.001491	0.82648	0.313522
1093	H	0.038074	0.822012	0.012013
1094	C	0.025331	0.864757	0.089948
1095	H	0.014173	0.871971	0.125702
1096	H	0.043488	0.847777	0.099667
1097	C	0.340059	0.53734	0.00698
1098	C	0.312649	0.514445	0.323578
1099	C	0.352288	0.554707	0.29093
1100	C	0.36488	0.531652	0.247936
1101	H	0.371106	0.570771	0.302695
1102	H	0.333379	0.569166	0.274829
1103	C	0.33634	0.509025	0.234562
1104	C	0.322947	0.990133	0.282482
1105	H	0.31793	0.523781	0.217704
1106	H	0.343353	0.491999	0.205335
1107	H	0.293148	0.527359	0.306134
1108	H	0.303351	0.50238	0.024034
1109	C	0.351418	0.970511	0.303103
1110	C	0.38044	0.991069	0.318379
1111	H	0.356931	0.952888	0.273967
1112	H	0.345463	0.957472	0.337635
1113	C	0.392028	0.512531	0.273762
1114	H	0.40363	0.498408	0.244951
1115	H	0.410447	0.528606	0.28774
1116	C	0.367975	0.515114	0.027024
1117	H	0.359932	0.502233	0.060774
1118	H	0.388011	0.529485	0.038868
1119	C	0.39613	0.704705	0.181908
1120	C	0.423878	0.72656	0.163346
1121	C	0.386685	0.683956	0.133238
1122	C	0.375144	0.70414	0.085756
1123	H	0.368008	0.66746	0.142836
1124	H	0.40703	0.669712	0.122295
1125	C	0.404053	0.726064	0.07223
1126	C	0.414625	0.748049	0.117725
1127	H	0.423486	0.710575	0.061235
1128	H	0.398956	0.74105	0.039354
1129	H	0.444429	0.712059	0.153306
1130	H	0.431286	0.742472	0.193662
1131	C	0.384684	0.768236	0.131618
1132	C	0.355969	0.747893	0.14941
1133	H	0.378812	0.782704	0.098372
1134	H	0.389209	0.784639	0.162807
1135	C	0.346546	0.723833	0.107061
1136	H	0.335144	0.736567	0.076484
1137	H	0.328273	0.707862	0.121586
1138	C	0.367588	0.726964	0.195624
1139	H	0.374242	0.742097	0.227699
1140	H	0.348013	0.712226	0.207862
1141	C	0.451477	0.588446	0.093041
1142	C	0.46849	0.561931	0.061656
1143	C	0.433046	0.609178	0.05287
1144	C	0.455064	0.624296	0.344457
1145	H	0.420645	0.628013	0.072645
1146	H	0.415081	0.594665	0.034256
1147	C	0.473597	0.596267	0.317213
1148	C	0.993103	0.574422	0.022485
1149	H	0.456905	0.581555	0.295989
1150	H	0.489556	0.606699	0.289093
1151	H	0.451418	0.547824	0.040028
1152	H	0.479362	0.546345	0.089594
1153	C	0.017462	0.595766	0.050812
1154	C	0.002057	0.624849	0.077221
1155	H	0.035163	0.602059	0.022474
1156	H	0.030324	0.583006	0.080617
1157	C	0.480669	0.643715	0.039796
1158	H	0.494932	0.654665	0.343274
1159	H	0.469471	0.66273	0.061784
1160	C	0.478271	0.610277	0.118209
1161	H	0.49151	0.596463	0.14625
1162	H	0.467179	0.629604	0.139265
1163	C	0.293315	0.650055	0.255358
1164	C	0.269684	0.676834	0.238564
1165	C	0.311572	0.639105	0.20607
1166	C	0.289539	0.626702	0.161664
1167	H	0.32797	0.620553	0.217409
1168	H	0.325445	0.658831	0.191751
1169	C	0.266288	0.65492	0.148856
1170	C	0.246116	0.666503	0.196407
1171	H	0.280697	0.6742	0.133889
1172	H	0.24984	0.648427	0.118577
1173	H	0.282278	0.696848	0.221929
1174	H	0.257035	0.685402	0.272291
1175	C	0.227087	0.636839	0.214114
1176	C	0.248497	0.608476	0.229659
1177	H	0.210719	0.630844	0.183311
1178	H	0.212614	0.641681	0.247595
1179	C	0.271123	0.59842	0.185653
1180	H	0.25806	0.586626	0.155785
1181	H	0.287654	0.580447	0.199737
1182	C	0.271449	0.621369	0.273162
1183	H	0.257732	0.628595	0.306514
1184	H	0.286446	0.601912	0.285005
1185	C	0.079019	0.854415	0.248918
1186	C	0.093369	0.83454	0.212586
1187	C	0.076396	0.81186	0.184068
1188	C	0.043087	0.813335	0.190669
1189	C	0.028506	0.834334	0.225151
1190	C	0.046276	0.853772	0.258766
1191	H	0.028461	0.798689	0.171003
1192	H	0.116927	0.836884	0.207371
1193	H	0.093257	0.868824	0.269467
1194	H	0.004534	0.832853	0.228732
1195	C	0.15635	0.887023	0.080062
1196	C	0.142797	0.907444	0.04327
1197	C	0.160939	0.929152	0.014508
1198	C	0.194134	0.926133	0.021888
1199	C	0.207671	0.904701	0.056601
1200	C	0.189126	0.886071	0.090174
1201	H	0.209719	0.939916	0.002613
1202	H	0.119041	0.906693	0.038231
1203	H	0.141722	0.873047	0.100582
1204	H	0.231689	0.905216	0.060147
1205	C	0.132738	0.828609	0.000677
1206	C	0.151439	0.843231	0.296139
1207	C	0.172855	0.8263	0.264952
1208	C	0.172021	0.793035	0.27276
1209	C	0.151807	0.778226	0.974917
1210	C	0.132844	0.795629	0.00962
1211	H	0.186477	0.778481	0.252702
1212	H	0.149524	0.867035	0.292355
1213	H	0.11998	0.842973	0.023503
1214	H	0.153502	0.754254	0.978256
1215	C	0.104374	0.909301	0.166697
1216	C	0.084868	0.894436	0.130414
1217	C	0.063989	0.911459	0.09867
1218	C	0.067009	0.944684	0.102531
1219	C	0.089028	0.959653	0.13475
1220	C	0.106505	0.942435	0.171589
1221	H	0.052279	0.958883	0.082811
1222	H	0.085764	0.870582	0.128438
1223	H	0.116254	0.895268	0.190957
1224	H	0.088915	0.98377	0.13554
1225	C	0.336484	0.60075	0.115125
1226	C	0.347692	0.577626	0.080594
1227	C	0.327793	0.562094	0.045198
1228	C	0.296661	0.574705	0.043323
1229	C	0.286212	0.59967	0.074482
1230	C	0.30513	0.612002	0.114495
1231	H	0.2803	0.566045	0.018904
1232	H	0.370903	0.572151	0.081803
1233	H	0.351978	0.61082	0.139506
1234	H	0.262864	0.605563	0.07194
1235	C	0.412259	0.635854	0.277553
1236	C	0.397415	0.654908	0.239989
1237	C	0.407075	0.686132	0.229164
1238	C	0.427654	0.698916	0.266535
1239	C	0.442857	0.679956	0.303012
1240	C	0.437269	0.646851	0.308118
1241	H	0.433193	0.722309	0.267176
1242	H	0.379724	0.645499	0.21911
1243	H	0.405083	0.613283	0.282793
1244	H	0.458729	0.691591	0.325267
1245	C	0.388642	0.578878	0.199632
1246	C	0.411317	0.591841	0.165903
1247	C	0.428325	0.57307	0.130999
1248	C	0.419386	0.54052	0.131171
1249	C	0.395497	0.528164	0.162884
1250	C	0.380686	0.54664	0.20111
1251	H	0.429802	0.524613	0.107553
1252	H	0.414965	0.615568	0.165947
1253	H	0.37609	0.59354	0.221949
1254	H	0.391203	0.504424	0.160912
1255	C	0.356281	0.655135	0.032208
1256	C	0.335631	0.642879	0.327527
1257	C	0.317316	0.662548	0.295083
1258	C	0.325851	0.694965	0.29835
1259	C	0.349209	0.70661	0.997969
1260	C	0.362087	0.687843	0.037686
1261	H	0.315031	0.711735	0.277066
1262	H	0.3332	0.619131	0.324932
1263	H	0.367127	0.639996	0.056411
1264	H	0.352833	0.730485	0.997377
1265	C	0.051454	0.690487	0.141903
1266	C	0.031363	0.663968	0.136874
1267	C	0.028518	0.648162	0.089822
1268	C	0.048819	0.659223	0.050089
1269	C	0.067434	0.686246	0.054429
1270	C	0.06808	0.704022	0.099684
1271	H	0.047969	0.650034	0.347521
1272	H	0.01791	0.65713	0.167301
1273	H	0.052848	0.700206	0.177334
1274	H	0.079707	0.692916	0.022826
1275	C	0.195759	0.544963	0.292959
1276	C	0.218545	0.568961	0.287065
1277	C	0.225777	0.581059	0.23846
1278	C	0.207683	0.568528	0.197158
1279	C	0.187032	0.543013	0.202391
1280	C	0.180631	0.530019	0.25062
1281	H	0.208784	0.57806	0.161465
1282	H	0.228304	0.578786	0.318899
1283	H	0.190079	0.539008	0.996157
1284	H	0.175611	0.535426	0.170427
1285	C	0.291718	0.799514	0.213101
1286	C	0.316116	0.777297	0.206906
1287	C	0.328606	0.770554	0.158224
1288	C	0.31578	0.788193	0.116897
1289	C	0.290055	0.808616	0.122594
1290	C	0.276803	0.814651	0.17096
1291	H	0.324944	0.786527	0.081001
1292	H	0.325267	0.767052	0.23885
1293	H	0.285007	0.804339	0.249635
1294	H	0.281971	0.81953	0.090515
1295	C	0.444204	0.939845	0.051374
1296	C	0.419797	0.962144	0.044601
1297	C	0.40678	0.967579	0.329302
1298	C	0.418143	0.947822	0.289285
1299	C	0.443587	0.927331	0.295238
1300	C	0.458261	0.923363	0.009624
1301	H	0.408377	0.94824	0.253694
1302	H	0.411012	0.97359	0.07574
1303	H	0.451647	0.936092	0.087844
1304	H	0.450482	0.915102	0.263714
1305	C	0.203383	0.737243	0.135023
1306	C	0.226931	0.715045	0.146528
1307	C	0.223397	0.693817	0.187599
1308	C	0.198111	0.700554	0.221707
1309	C	0.173206	0.720643	0.207756
1310	C	0.174003	0.737848	0.161649
1311	H	0.195707	0.688973	0.255522
1312	H	0.246002	0.713921	0.122834
1313	H	0.207425	0.75066	0.10346
1314	H	0.153487	0.720828	0.230216
1315	C	0.053189	0.532184	0.272146
1316	C	0.025394	0.548446	0.285267
1317	C	0.013296	0.54737	0.002068
1318	C	0.029929	0.527444	0.036922
1319	C	0.058084	0.51212	0.023753
1320	C	0.07018	0.512992	0.307471
1321	H	0.025185	0.527718	0.074974
1322	H	0.015992	0.56337	0.258756
1323	H	0.061711	0.536043	0.236264
1324	H	0.071489	0.503115	0.05223
1325	C	0.486803	0.787068	0.055034
1326	C	0.464001	0.764431	0.067654
1327	C	0.442387	0.769802	0.10765
1328	C	0.449211	0.795865	0.140096
1329	C	0.470109	0.819738	0.125061
1330	C	0.487517	0.817153	0.079356
1331	H	0.437186	0.799554	0.17322
1332	H	0.462715	0.744757	0.045354
1333	H	0.500357	0.781882	0.357389
1334	H	0.470563	0.84005	0.146107
1335	C	0.250754	0.951156	0.219426
1336	C	0.273415	0.97385	0.232847
1337	C	0.295099	0.968207	0.272672
1338	C	0.287968	0.941919	0.304574
1339	C	0.26703	0.918134	0.28906
1340	C	0.249594	0.920946	0.243436
1341	H	0.299561	0.937943	0.00459
1342	H	0.274594	0.993857	0.211264
1343	H	0.237063	0.956671	0.188752
1344	H	0.26638	0.897765	0.309949
1345	C	0.093516	0.788288	0.482461
1346	C	0.072257	0.75902	0.469998
1347	C	0.102816	0.803701	0.430191
1348	C	0.120141	0.780504	0.392313
1349	H	0.118099	0.823744	0.438533
1350	H	0.081756	0.812723	0.411245
1351	C	0.097811	0.750979	0.384441
1352	C	0.088938	0.73333	0.436367
1353	H	0.076261	0.758458	0.364787
1354	H	0.109978	0.734653	0.358989
1355	H	0.050906	0.766232	0.449554
1356	H	0.064832	0.749535	0.506702
1357	C	0.120541	0.722541	0.46184
1358	C	0.143362	0.750917	0.472736
1359	H	0.132374	0.705341	0.437092
1360	H	0.115148	0.710303	0.497568
1361	C	0.149918	0.768247	0.421153
1362	H	0.161874	0.751288	0.396434
1363	H	0.166117	0.788056	0.427794
1364	C	0.124684	0.774538	0.507709
1365	H	0.118448	0.763283	0.543837
1366	H	0.140966	0.793417	0.516538
1367	C	0.145597	0.952706	0.310409
1368	C	0.169774	0.97864	0.627133
1369	C	0.134858	0.935712	0.593579
1370	C	0.119874	0.95854	0.552575
1371	H	0.11775	0.917654	0.604314
1372	H	0.154926	0.923786	0.576149
1373	C	0.14495	0.985254	0.540703
1374	C	0.156063	0.50411	0.59014
1375	H	0.165438	0.97463	0.521879
1376	H	0.134514	0.001801	0.51356
1377	H	0.189955	0.968035	0.607463
1378	H	0.178586	0.989112	0.329002
1379	C	0.125926	0.51984	0.613131
1380	C	0.09998	0.494932	0.626493
1381	H	0.117105	0.537134	0.585558
1382	H	0.131727	0.53298	0.647876
1383	C	0.090905	0.974136	0.579504
1384	H	0.078616	0.988607	0.551801
1385	H	0.073921	0.955929	0.591211
1386	C	0.115838	0.971128	0.332615
1387	H	0.123097	0.983834	0.367002
1388	H	0.097875	0.95416	0.344165
1389	C	0.195799	0.843288	0.561632
1390	C	0.223704	0.821109	0.545594
1391	C	0.180165	0.854623	0.510229
1392	C	0.203507	0.871785	0.472164
1393	H	0.161274	0.870639	0.520037
1394	H	0.16974	0.83459	0.490298
1395	C	0.231586	0.848373	0.461242
1396	C	0.249386	0.837397	0.511456
1397	H	0.222517	0.827796	0.440599
1398	H	0.248519	0.860055	0.436142
1399	H	0.21475	0.800745	0.524296
1400	H	0.233947	0.812108	0.580869
1401	C	0.262202	0.867827	0.538542
1402	C	0.235091	0.891546	0.55278
1403	H	0.279402	0.879521	0.513641
1404	H	0.274936	0.861099	0.573157
1405	C	0.217303	0.900277	0.502513
1406	H	0.234398	0.912331	0.478179
1407	H	0.198224	0.916986	0.511006
1408	C	0.211373	0.873153	0.588001
1409	H	0.223126	0.865454	0.62299
1410	H	0.19343	0.889972	0.599339
1411	C	0.040156	0.894963	0.396995
1412	C	0.01182	0.917104	0.382764
1413	C	0.055501	0.884743	0.34515
1414	C	0.031908	0.867453	0.641018
1415	H	0.074922	0.868968	0.354111
1416	H	0.06539	0.905459	0.326002
1417	C	0.003387	0.89041	0.631323
1418	C	0.485955	0.90087	0.349011
1419	H	0.011804	0.911237	0.610619
1420	H	0.986622	0.878283	0.606483
1421	H	0.020009	0.937756	0.361399
1422	H	0.002123	0.925632	0.418747
1423	C	0.47371	0.870249	0.375868
1424	C	0.501283	0.846714	0.388547
1425	H	0.456295	0.858566	0.351346
1426	H	0.461383	0.876808	0.410967
1427	C	0.018692	0.838545	0.337664
1428	H	0.001491	0.82648	0.646854
1429	H	0.038074	0.822012	0.345346
1430	C	0.025331	0.864757	0.42328
1431	H	0.014173	0.871971	0.459035
1432	H	0.043488	0.847777	0.433001
1433	C	0.340059	0.53734	0.340313
1434	C	0.312649	0.514445	0.656911
1435	C	0.352288	0.554707	0.624263
1436	C	0.36488	0.531652	0.581269
1437	H	0.371106	0.570771	0.636027
1438	H	0.333379	0.569166	0.608164
1439	C	0.33634	0.509025	0.567896
1440	C	0.322947	0.990133	0.615815
1441	H	0.31793	0.523781	0.551034
1442	H	0.343353	0.491999	0.538668
1443	H	0.293148	0.527359	0.639466
1444	H	0.303351	0.50238	0.357367
1445	C	0.351418	0.970511	0.636435
1446	C	0.38044	0.991069	0.651711
1447	H	0.356931	0.952888	0.607299
1448	H	0.345463	0.957472	0.670966
1449	C	0.392028	0.512531	0.607097
1450	H	0.40363	0.498408	0.578284
1451	H	0.410447	0.528606	0.621072
1452	C	0.367975	0.515114	0.360357
1453	H	0.359932	0.502233	0.394109
1454	H	0.388011	0.529485	0.372201
1455	C	0.39613	0.704705	0.515242
1456	C	0.423878	0.72656	0.49668
1457	C	0.386685	0.683956	0.466571
1458	C	0.375144	0.70414	0.41909
1459	H	0.368008	0.66746	0.47617
1460	H	0.40703	0.669712	0.455626
1461	C	0.404053	0.726064	0.405565
1462	C	0.414625	0.748049	0.451059
1463	H	0.423486	0.710575	0.394566
1464	H	0.398956	0.74105	0.372686
1465	H	0.444429	0.712059	0.486639
1466	H	0.431286	0.742472	0.526995
1467	C	0.384684	0.768236	0.464951
1468	C	0.355969	0.747893	0.482743
1469	H	0.378812	0.782704	0.431705
1470	H	0.389209	0.784639	0.496139
1471	C	0.346546	0.723833	0.440393
1472	H	0.335144	0.736567	0.409815
1473	H	0.328273	0.707862	0.454917
1474	C	0.367588	0.726964	0.528958
1475	H	0.374242	0.742097	0.561034
1476	H	0.348013	0.712226	0.541195
1477	C	0.451477	0.588446	0.426372
1478	C	0.46849	0.561931	0.39499
1479	C	0.433046	0.609178	0.386202
1480	C	0.455064	0.624296	0.67779
1481	H	0.420645	0.628013	0.405976
1482	H	0.415081	0.594665	0.367589
1483	C	0.473597	0.596267	0.650548
1484	C	0.993103	0.574422	0.355818
1485	H	0.456905	0.581555	0.629322
1486	H	0.489556	0.606699	0.622425
1487	H	0.451418	0.547824	0.373361
1488	H	0.479362	0.546345	0.422925
1489	C	0.017462	0.595766	0.384144
1490	C	0.002057	0.624849	0.410555
1491	H	0.035163	0.602059	0.355807
1492	H	0.030324	0.583006	0.413951
1493	C	0.480669	0.643715	0.373129
1494	H	0.494932	0.654665	0.676608
1495	H	0.469471	0.66273	0.395115
1496	C	0.478271	0.610277	0.451544
1497	H	0.49151	0.596463	0.479582
1498	H	0.467179	0.629604	0.472598
1499	C	0.293315	0.650055	0.588691
1500	C	0.269684	0.676834	0.571895
1501	C	0.311572	0.639105	0.539403
1502	C	0.289539	0.626702	0.494995
1503	H	0.32797	0.620553	0.550741
1504	H	0.325445	0.658831	0.525085
1505	C	0.266288	0.65492	0.48219
1506	C	0.246116	0.666503	0.529739
1507	H	0.280697	0.6742	0.467223
1508	H	0.24984	0.648427	0.45191
1509	H	0.282278	0.696848	0.555262
1510	H	0.257035	0.685402	0.605625
1511	C	0.227087	0.636839	0.547447
1512	C	0.248497	0.608476	0.562993
1513	H	0.210719	0.630844	0.516645
1514	H	0.212614	0.641681	0.58093
1515	C	0.271123	0.59842	0.518985
1516	H	0.25806	0.586626	0.489117
1517	H	0.287654	0.580447	0.533071
1518	C	0.271449	0.621369	0.606494
1519	H	0.257732	0.628595	0.639847
1520	H	0.286446	0.601912	0.618339
1521	C	0.079019	0.854415	0.582252
1522	C	0.093369	0.83454	0.545918
1523	C	0.076396	0.81186	0.517399
1524	C	0.043087	0.813335	0.524002
1525	C	0.028506	0.834334	0.558483
1526	C	0.046276	0.853772	0.592099
1527	H	0.028461	0.798689	0.504335
1528	H	0.116927	0.836884	0.540703
1529	H	0.093257	0.868824	0.6028
1530	H	0.004534	0.832853	0.562063
1531	C	0.15635	0.887023	0.413395
1532	C	0.142797	0.907444	0.376603
1533	C	0.160939	0.929152	0.347841
1534	C	0.194134	0.926133	0.355221
1535	C	0.207671	0.904701	0.389935
1536	C	0.189126	0.886071	0.423505
1537	H	0.209719	0.939916	0.335946
1538	H	0.119041	0.906693	0.371564
1539	H	0.141722	0.873047	0.433916
1540	H	0.231689	0.905216	0.39348
1541	C	0.132738	0.828609	0.33401
1542	C	0.151439	0.843231	0.62947
1543	C	0.172855	0.8263	0.598287
1544	C	0.172021	0.793035	0.606094
1545	C	0.151807	0.778226	0.308251
1546	C	0.132844	0.795629	0.342952
1547	H	0.186477	0.778481	0.586034
1548	H	0.149524	0.867035	0.625689
1549	H	0.11998	0.842973	0.356835
1550	H	0.153502	0.754254	0.31159
1551	C	0.104374	0.909301	0.500031
1552	C	0.084868	0.894436	0.463746
1553	C	0.063989	0.911459	0.432002
1554	C	0.067009	0.944684	0.435864
1555	C	0.089028	0.959653	0.468085
1556	C	0.106505	0.942435	0.504922
1557	H	0.052279	0.958883	0.416144
1558	H	0.085764	0.870582	0.461772
1559	H	0.116254	0.895268	0.524288
1560	H	0.088915	0.98377	0.468874
1561	C	0.336484	0.60075	0.44846
1562	C	0.347692	0.577626	0.413925
1563	C	0.327793	0.562094	0.378531
1564	C	0.296661	0.574705	0.376656
1565	C	0.286212	0.59967	0.407814
1566	C	0.30513	0.612002	0.447827
1567	H	0.2803	0.566045	0.352237
1568	H	0.370903	0.572151	0.415137
1569	H	0.351978	0.61082	0.472839
1570	H	0.262864	0.605563	0.405275
1571	C	0.412259	0.635854	0.610886
1572	C	0.397415	0.654908	0.57332
1573	C	0.407075	0.686132	0.562498
1574	C	0.427654	0.698916	0.599869
1575	C	0.442857	0.679956	0.636344
1576	C	0.437269	0.646851	0.641452
1577	H	0.433193	0.722309	0.600509
1578	H	0.379724	0.645499	0.552445
1579	H	0.405083	0.613283	0.616124
1580	H	0.458729	0.691591	0.658599
1581	C	0.388642	0.578878	0.532965
1582	C	0.411317	0.591841	0.499234
1583	C	0.428325	0.57307	0.464334
1584	C	0.419386	0.54052	0.464505
1585	C	0.395497	0.528164	0.496219
1586	C	0.380686	0.54664	0.534444
1587	H	0.429802	0.524613	0.440885
1588	H	0.414965	0.615568	0.49928
1589	H	0.37609	0.59354	0.555281
1590	H	0.391203	0.504424	0.494244
1591	C	0.356281	0.655135	0.365541
1592	C	0.335631	0.642879	0.66086
1593	C	0.317316	0.662548	0.628414
1594	C	0.325851	0.694965	0.631681
1595	C	0.349209	0.70661	0.331302
1596	C	0.362087	0.687843	0.371019
1597	H	0.315031	0.711735	0.610398
1598	H	0.3332	0.619131	0.658264
1599	H	0.367127	0.639996	0.389744
1600	H	0.352833	0.730485	0.33071
1601	C	0.051454	0.690487	0.475236
1602	C	0.031363	0.663968	0.470208
1603	C	0.028518	0.648162	0.423154
1604	C	0.048819	0.659223	0.383423
1605	C	0.067434	0.686246	0.387762
1606	C	0.06808	0.704022	0.433016
1607	H	0.047969	0.650034	0.680855
1608	H	0.01791	0.65713	0.500633
1609	H	0.052848	0.700206	0.510667
1610	H	0.079707	0.692916	0.356159
1611	C	0.195759	0.544963	0.626291
1612	C	0.218545	0.568961	0.620397
1613	C	0.225777	0.581059	0.571792
1614	C	0.207683	0.568528	0.53049
1615	C	0.187032	0.543013	0.535725
1616	C	0.180631	0.530019	0.583953
1617	H	0.208784	0.57806	0.494797
1618	H	0.228304	0.578786	0.652233
1619	H	0.190079	0.539008	0.32949
1620	H	0.175611	0.535426	0.503759
1621	C	0.291718	0.799514	0.546433
1622	C	0.316116	0.777297	0.540238
1623	C	0.328606	0.770554	0.491556
1624	C	0.31578	0.788193	0.450228
1625	C	0.290055	0.808616	0.455928
1626	C	0.276803	0.814651	0.504293
1627	H	0.324944	0.786527	0.414333
1628	H	0.325267	0.767052	0.572184
1629	H	0.285007	0.804339	0.582969
1630	H	0.281971	0.81953	0.423848
1631	C	0.444204	0.939845	0.384708
1632	C	0.419797	0.962144	0.377934
1633	C	0.40678	0.967579	0.662637
1634	C	0.418143	0.947822	0.62262
1635	C	0.443587	0.927331	0.628571
1636	C	0.458261	0.923363	0.342957
1637	H	0.408377	0.94824	0.587025
1638	H	0.411012	0.97359	0.409072
1639	H	0.451647	0.936092	0.421176
1640	H	0.450482	0.915102	0.597048
1641	C	0.203383	0.737243	0.468355
1642	C	0.226931	0.715045	0.479861
1643	C	0.223397	0.693817	0.520933
1644	C	0.198111	0.700554	0.555041
1645	C	0.173206	0.720643	0.541088
1646	C	0.174003	0.737848	0.494984
1647	H	0.195707	0.688973	0.588855
1648	H	0.246002	0.713921	0.456168
1649	H	0.207425	0.75066	0.436794
1650	H	0.153487	0.720828	0.56355
1651	C	0.053189	0.532184	0.605476
1652	C	0.025394	0.548446	0.618598
1653	C	0.013296	0.54737	0.335401
1654	C	0.029929	0.527444	0.370255
1655	C	0.058084	0.51212	0.357085
1656	C	0.07018	0.512992	0.640804
1657	H	0.025185	0.527718	0.408306
1658	H	0.015992	0.56337	0.592088
1659	H	0.061711	0.536043	0.569596
1660	H	0.071489	0.503115	0.385562
1661	C	0.486803	0.787068	0.388368
1662	C	0.464001	0.764431	0.400986
1663	C	0.442387	0.769802	0.440984
1664	C	0.449211	0.795865	0.473429
1665	C	0.470109	0.819738	0.458394
1666	C	0.487517	0.817153	0.41269
1667	H	0.437186	0.799554	0.506554
1668	H	0.462715	0.744757	0.378687
1669	H	0.500357	0.781882	0.690721
1670	H	0.470563	0.84005	0.479437
1671	C	0.250754	0.951156	0.552757
1672	C	0.273415	0.97385	0.56618
1673	C	0.295099	0.968207	0.606006
1674	C	0.287968	0.941919	0.637907
1675	C	0.26703	0.918134	0.622391
1676	C	0.249594	0.920946	0.576767
1677	H	0.299561	0.937943	0.337923
1678	H	0.274594	0.993857	0.544596
1679	H	0.237063	0.956671	0.522085
1680	H	0.26638	0.897765	0.643282
1681	C	0.093516	0.788288	0.815792
1682	C	0.072257	0.75902	0.80333
1683	C	0.102816	0.803701	0.763526
1684	C	0.120141	0.780504	0.725645
1685	H	0.118099	0.823744	0.771867
1686	H	0.081756	0.812723	0.744576
1687	C	0.097811	0.750979	0.717776
1688	C	0.088938	0.73333	0.769698
1689	H	0.076261	0.758458	0.69812
1690	H	0.109978	0.734653	0.692322
1691	H	0.050906	0.766232	0.782885
1692	H	0.064832	0.749535	0.840037
1693	C	0.120541	0.722541	0.795171
1694	C	0.143362	0.750917	0.806067
1695	H	0.132374	0.705341	0.770426
1696	H	0.115148	0.710303	0.830899
1697	C	0.149918	0.768247	0.754484
1698	H	0.161874	0.751288	0.729766
1699	H	0.166117	0.788056	0.761125
1700	C	0.124684	0.774538	0.84104
1701	H	0.118448	0.763283	0.877168
1702	H	0.140966	0.793417	0.849873
1703	C	0.145597	0.952706	0.643743
1704	C	0.169774	0.97864	0.960468
1705	C	0.134858	0.935712	0.926913
1706	C	0.119874	0.95854	0.885906
1707	H	0.11775	0.917654	0.937649
1708	H	0.154926	0.923786	0.90948
1709	C	0.14495	0.985254	0.874038
1710	C	0.156063	0.50411	0.923475
1711	H	0.165438	0.97463	0.85521
1712	H	0.134514	0.001801	0.846895
1713	H	0.189955	0.968035	0.940794
1714	H	0.178586	0.989112	0.662335
1715	C	0.125926	0.51984	0.946466
1716	C	0.09998	0.494932	0.959824
1717	H	0.117105	0.537134	0.918893
1718	H	0.131727	0.53298	0.981211
1719	C	0.090905	0.974136	0.912835
1720	H	0.078616	0.988607	0.885132
1721	H	0.073921	0.955929	0.924546
1722	C	0.115838	0.971128	0.665949
1723	H	0.123097	0.983834	0.700335
1724	H	0.097875	0.95416	0.677496
1725	C	0.195799	0.843288	0.894967
1726	C	0.223704	0.821109	0.878925
1727	C	0.180165	0.854623	0.84356
1728	C	0.203507	0.871785	0.805499
1729	H	0.161274	0.870639	0.853372
1730	H	0.16974	0.83459	0.82363
1731	C	0.231586	0.848373	0.794577
1732	C	0.249386	0.837397	0.844787
1733	H	0.222517	0.827796	0.773934
1734	H	0.248519	0.860055	0.769477
1735	H	0.21475	0.800745	0.857627
1736	H	0.233947	0.812108	0.9142
1737	C	0.262202	0.867827	0.871877
1738	C	0.235091	0.891546	0.886111
1739	H	0.279402	0.879521	0.846975
1740	H	0.274936	0.861099	0.906488
1741	C	0.217303	0.900277	0.835844
1742	H	0.234398	0.912331	0.811514
1743	H	0.198224	0.916986	0.844341
1744	C	0.211373	0.873153	0.921332
1745	H	0.223126	0.865454	0.956325
1746	H	0.19343	0.889972	0.932674
1747	C	0.040156	0.894963	0.730326
1748	C	0.01182	0.917104	0.716095
1749	C	0.055501	0.884743	0.678484
1750	C	0.031908	0.867453	0.974349
1751	H	0.074922	0.868968	0.687442
1752	H	0.06539	0.905459	0.659335
1753	C	0.003387	0.89041	0.964654
1754	C	0.485955	0.90087	0.682346
1755	H	0.011804	0.911237	0.943954
1756	H	0.986622	0.878283	0.939814
1757	H	0.020009	0.937756	0.694731
1758	H	0.002123	0.925632	0.752078
1759	C	0.47371	0.870249	0.709199
1760	C	0.501283	0.846714	0.721878
1761	H	0.456295	0.858566	0.684679
1762	H	0.461383	0.876808	0.744301
1763	C	0.018692	0.838545	0.670997
1764	H	0.001491	0.82648	0.980189
1765	H	0.038074	0.822012	0.678678
1766	C	0.025331	0.864757	0.756615
1767	H	0.014173	0.871971	0.792366
1768	H	0.043488	0.847777	0.766332
1769	C	0.340059	0.53734	0.673646
1770	C	0.312649	0.514445	0.990242
1771	C	0.352288	0.554707	0.957594
1772	C	0.36488	0.531652	0.9146
1773	H	0.371106	0.570771	0.969362
1774	H	0.333379	0.569166	0.941495
1775	C	0.33634	0.509025	0.901227
1776	C	0.322947	0.990133	0.949146
1777	H	0.31793	0.523781	0.884369
1778	H	0.343353	0.491999	0.871999
1779	H	0.293148	0.527359	0.972801
1780	H	0.303351	0.50238	0.690698
1781	C	0.351418	0.970511	0.96977
1782	C	0.38044	0.991069	0.985046
1783	H	0.356931	0.952888	0.940634
1784	H	0.345463	0.957472	0.004302
1785	C	0.392028	0.512531	0.940428
1786	H	0.40363	0.498408	0.911615
1787	H	0.410447	0.528606	0.954407
1788	C	0.367975	0.515114	0.693691
1789	H	0.359932	0.502233	0.72744
1790	H	0.388011	0.529485	0.705535
1791	C	0.39613	0.704705	0.848573
1792	C	0.423878	0.72656	0.830011
1793	C	0.386685	0.683956	0.799902
1794	C	0.375144	0.70414	0.752421
1795	H	0.368008	0.66746	0.809501
1796	H	0.40703	0.669712	0.788961
1797	C	0.404053	0.726064	0.738896
1798	C	0.414625	0.748049	0.784391
1799	H	0.423486	0.710575	0.727901
1800	H	0.398956	0.74105	0.706019
1801	H	0.444429	0.712059	0.81997
1802	H	0.431286	0.742472	0.860326
1803	C	0.384684	0.768236	0.798282
1804	C	0.355969	0.747893	0.816074
1805	H	0.378812	0.782704	0.765036
1806	H	0.389209	0.784639	0.829474
1807	C	0.346546	0.723833	0.773728
1808	H	0.335144	0.736567	0.74315
1809	H	0.328273	0.707862	0.788252
1810	C	0.367588	0.726964	0.862289
1811	H	0.374242	0.742097	0.894365
1812	H	0.348013	0.712226	0.874526
1813	C	0.451477	0.588446	0.759707
1814	C	0.46849	0.561931	0.728321
1815	C	0.433046	0.609178	0.719534
1816	C	0.455064	0.624296	0.011124
1817	H	0.420645	0.628013	0.739311
1818	H	0.415081	0.594665	0.700922
1819	C	0.473597	0.596267	0.983879
1820	C	0.993103	0.574422	0.68915
1821	H	0.456905	0.581555	0.962657
1822	H	0.489556	0.606699	0.95576
1823	H	0.451418	0.547824	0.706694
1824	H	0.479362	0.546345	0.75626
1825	C	0.017462	0.595766	0.717479
1826	C	0.002057	0.624849	0.743886
1827	H	0.035163	0.602059	0.689139
1828	H	0.030324	0.583006	0.747283
1829	C	0.480669	0.643715	0.706462
1830	H	0.494932	0.654665	0.009941
1831	H	0.469471	0.66273	0.72845
1832	C	0.478271	0.610277	0.784875
1833	H	0.49151	0.596463	0.812917
1834	H	0.467179	0.629604	0.805929
1835	C	0.293315	0.650055	0.922022
1836	C	0.269684	0.676834	0.90523
1837	C	0.311572	0.639105	0.872734
1838	C	0.289539	0.626702	0.82833
1839	H	0.32797	0.620553	0.884076
1840	H	0.325445	0.658831	0.858416
1841	C	0.266288	0.65492	0.815521
1842	C	0.246116	0.666503	0.863071
1843	H	0.280697	0.6742	0.800554
1844	H	0.24984	0.648427	0.785241
1845	H	0.282278	0.696848	0.888593
1846	H	0.257035	0.685402	0.938956
1847	C	0.227087	0.636839	0.880778
1848	C	0.248497	0.608476	0.896324
1849	H	0.210719	0.630844	0.849976
1850	H	0.212614	0.641681	0.914261
1851	C	0.271123	0.59842	0.852316
1852	H	0.25806	0.586626	0.822452
1853	H	0.287654	0.580447	0.866402
1854	C	0.271449	0.621369	0.939829
1855	H	0.257732	0.628595	0.973178
1856	H	0.286446	0.601912	0.95167
1857	C	0.079019	0.854415	0.915584
1858	C	0.093369	0.83454	0.879249
1859	C	0.076396	0.81186	0.850734
1860	C	0.043087	0.813335	0.857333
1861	C	0.028506	0.834334	0.891815
1862	C	0.046276	0.853772	0.92543
1863	H	0.028461	0.798689	0.83767
1864	H	0.116927	0.836884	0.874038
1865	H	0.093257	0.868824	0.936131
1866	H	0.004534	0.832853	0.895398
1867	C	0.15635	0.887023	0.746726
1868	C	0.142797	0.907444	0.709934
1869	C	0.160939	0.929152	0.681175
1870	C	0.194134	0.926133	0.688552
1871	C	0.207671	0.904701	0.723266
1872	C	0.189126	0.886071	0.75684
1873	H	0.209719	0.939916	0.669277
1874	H	0.119041	0.906693	0.704899
1875	H	0.141722	0.873047	0.767247
1876	H	0.231689	0.905216	0.726811
1877	C	0.132738	0.828609	0.667345
1878	C	0.151439	0.843231	0.962805
1879	C	0.172855	0.8263	0.931618
1880	C	0.172021	0.793035	0.939425
1881	C	0.151807	0.778226	0.641586
1882	C	0.132844	0.795629	0.676284
1883	H	0.186477	0.778481	0.919369
1884	H	0.149524	0.867035	0.95902
1885	H	0.11998	0.842973	0.690168
1886	H	0.153502	0.754254	0.644921
1887	C	0.104374	0.909301	0.833362
1888	C	0.084868	0.894436	0.797081
1889	C	0.063989	0.911459	0.765337
1890	C	0.067009	0.944684	0.769195
1891	C	0.089028	0.959653	0.801416
1892	C	0.106505	0.942435	0.838253
1893	H	0.052279	0.958883	0.749478
1894	H	0.085764	0.870582	0.795103
1895	H	0.116254	0.895268	0.857623
1896	H	0.088915	0.98377	0.802205
1897	C	0.336484	0.60075	0.781791
1898	C	0.347692	0.577626	0.74726
1899	C	0.327793	0.562094	0.711863
1900	C	0.296661	0.574705	0.709988
1901	C	0.286212	0.59967	0.741149
1902	C	0.30513	0.612002	0.781162
1903	H	0.2803	0.566045	0.685571
1904	H	0.370903	0.572151	0.748468
1905	H	0.351978	0.61082	0.80617
1906	H	0.262864	0.605563	0.738606
1907	C	0.412259	0.635854	0.944217
1908	C	0.397415	0.654908	0.906655
1909	C	0.407075	0.686132	0.895829
1910	C	0.427654	0.698916	0.9332
1911	C	0.442857	0.679956	0.969679
1912	C	0.437269	0.646851	0.974783
1913	H	0.433193	0.722309	0.93384
1914	H	0.379724	0.645499	0.885776
1915	H	0.405083	0.613283	0.949459
1916	H	0.458729	0.691591	0.991934
1917	C	0.388642	0.578878	0.866299
1918	C	0.411317	0.591841	0.832569
1919	C	0.428325	0.57307	0.797665
1920	C	0.419386	0.54052	0.797836
1921	C	0.395497	0.528164	0.82955
1922	C	0.380686	0.54664	0.867775
1923	H	0.429802	0.524613	0.77422
1924	H	0.414965	0.615568	0.832611
1925	H	0.37609	0.59354	0.888616
1926	H	0.391203	0.504424	0.827579
1927	C	0.356281	0.655135	0.698875
1928	C	0.335631	0.642879	0.994191
1929	C	0.317316	0.662548	0.961749
1930	C	0.325851	0.694965	0.965016
1931	C	0.349209	0.70661	0.664634
1932	C	0.362087	0.687843	0.704353
1933	H	0.315031	0.711735	0.943733
1934	H	0.3332	0.619131	0.991599
1935	H	0.367127	0.639996	0.723075
1936	H	0.352833	0.730485	0.664043
1937	C	0.051454	0.690487	0.808568
1938	C	0.031363	0.663968	0.803539
1939	C	0.028518	0.648162	0.756489
1940	C	0.048819	0.659223	0.716754
1941	C	0.067434	0.686246	0.721093
1942	C	0.06808	0.704022	0.766351
1943	H	0.047969	0.650034	0.014188
1944	H	0.01791	0.65713	0.833964
1945	H	0.052848	0.700206	0.844002
1946	H	0.079707	0.692916	0.689493
1947	C	0.195759	0.544963	0.959626
1948	C	0.218545	0.568961	0.953728
1949	C	0.225777	0.581059	0.905127
1950	C	0.207683	0.568528	0.863822
1951	C	0.187032	0.543013	0.869056
1952	C	0.180631	0.530019	0.917288
1953	H	0.208784	0.57806	0.828132
1954	H	0.228304	0.578786	0.985564
1955	H	0.190079	0.539008	0.662823
1956	H	0.175611	0.535426	0.837094
1957	C	0.291718	0.799514	0.879768
1958	C	0.316116	0.777297	0.873573
1959	C	0.328606	0.770554	0.824891
1960	C	0.31578	0.788193	0.783563
1961	C	0.290055	0.808616	0.789259
1962	C	0.276803	0.814651	0.837624
1963	H	0.324944	0.786527	0.747668
1964	H	0.325267	0.767052	0.905516
1965	H	0.285007	0.804339	0.9163
1966	H	0.281971	0.81953	0.757179
1967	C	0.444204	0.939845	0.718039
1968	C	0.419797	0.962144	0.711265
1969	C	0.40678	0.967579	0.99597
1970	C	0.418143	0.947822	0.955951
1971	C	0.443587	0.927331	0.961906
1972	C	0.458261	0.923363	0.676288
1973	H	0.408377	0.94824	0.92036
1974	H	0.411012	0.97359	0.742407
1975	H	0.451647	0.936092	0.754511
1976	H	0.450482	0.915102	0.930379
1977	C	0.203383	0.737243	0.801686
1978	C	0.226931	0.715045	0.813196
1979	C	0.223397	0.693817	0.854264
1980	C	0.198111	0.700554	0.888372
1981	C	0.173206	0.720643	0.874423
1982	C	0.174003	0.737848	0.828315
1983	H	0.195707	0.688973	0.922186
1984	H	0.246002	0.713921	0.789499
1985	H	0.207425	0.75066	0.770125
1986	H	0.153487	0.720828	0.896881
1987	C	0.053189	0.532184	0.938811
1988	C	0.025394	0.548446	0.951933
1989	C	0.013296	0.54737	0.668732
1990	C	0.029929	0.527444	0.703587
1991	C	0.058084	0.51212	0.69042
1992	C	0.07018	0.512992	0.974135
1993	H	0.025185	0.527718	0.741641
1994	H	0.015992	0.56337	0.925423
1995	H	0.061711	0.536043	0.902931
1996	H	0.071489	0.503115	0.718897
1997	C	0.486803	0.787068	0.721699
1998	C	0.464001	0.764431	0.734321
1999	C	0.442387	0.769802	0.774315
2000	C	0.449211	0.795865	0.806761
2001	C	0.470109	0.819738	0.791725
2002	C	0.487517	0.817153	0.746021
2003	H	0.437186	0.799554	0.839885
2004	H	0.462715	0.744757	0.71202
2005	H	0.500357	0.781882	0.024056
2006	H	0.470563	0.84005	0.812772
2007	C	0.250754	0.951156	0.886092
2008	C	0.273415	0.97385	0.899511
2009	C	0.295099	0.968207	0.939337
2010	C	0.287968	0.941919	0.971238
2011	C	0.26703	0.918134	0.955726
2012	C	0.249594	0.920946	0.910102
2013	H	0.299561	0.937943	0.671256
2014	H	0.274594	0.993857	0.87793
2015	H	0.237063	0.956671	0.855419
2016	H	0.26638	0.897765	0.976613
2017	C	0.593517	0.288289	0.149128
2018	C	0.572257	0.25902	0.136665
2019	C	0.602817	0.303701	0.09686
2020	C	0.62014	0.280504	0.058979
2021	H	0.618098	0.323743	0.1052
2022	H	0.581756	0.312722	0.077912
2023	C	0.59781	0.250978	0.051109
2024	C	0.588937	0.233331	0.103033
2025	H	0.57626	0.25846	0.031454
2026	H	0.609977	0.234653	0.025656
2027	H	0.550905	0.266231	0.116219
2028	H	0.564833	0.249535	0.17337
2029	C	0.620539	0.222542	0.128507
2030	C	0.643361	0.250917	0.139403
2031	H	0.632373	0.205341	0.103759
2032	H	0.615147	0.210302	0.164234
2033	C	0.649918	0.268249	0.087819
2034	H	0.661874	0.251288	0.0631
2035	H	0.666116	0.288058	0.094459
2036	C	0.624684	0.274539	0.174375
2037	H	0.618448	0.263282	0.210504
2038	H	0.640965	0.293419	0.183205
2039	C	0.645596	0.452706	0.977074
2040	C	0.669774	0.478639	0.293802
2041	C	0.634859	0.435712	0.260247
2042	C	0.619873	0.45854	0.21924
2043	H	0.617749	0.417654	0.270981
2044	H	0.654925	0.423786	0.242816
2045	C	0.644951	0.485253	0.207372
2046	C	0.656062	0.004109	0.256808
2047	H	0.665438	0.474629	0.188546
2048	H	0.634514	0.501801	0.180229
2049	H	0.689953	0.468037	0.274129
2050	H	0.678585	0.489114	0.99567
2051	C	0.625924	0.019841	0.2798
2052	C	0.599979	0.99493	0.293159
2053	H	0.617104	0.037135	0.252227
2054	H	0.631728	0.032982	0.314545
2055	C	0.590905	0.474138	0.246171
2056	H	0.578616	0.488606	0.218467
2057	H	0.573921	0.455931	0.25788
2058	C	0.615837	0.47113	0.999282
2059	H	0.623096	0.483833	0.03367
2060	H	0.597874	0.454162	0.010832
2061	C	0.695799	0.343287	0.228301
2062	C	0.723703	0.321111	0.212261
2063	C	0.680164	0.354622	0.176896
2064	C	0.703507	0.371784	0.138833
2065	H	0.661274	0.370641	0.186706
2066	H	0.669738	0.334591	0.156965
2067	C	0.731586	0.348375	0.12791
2068	C	0.749386	0.337399	0.178123
2069	H	0.722517	0.327798	0.107268
2070	H	0.748517	0.360055	0.10281
2071	H	0.71475	0.300745	0.190962
2072	H	0.733947	0.312108	0.247534
2073	C	0.762203	0.367826	0.20521
2074	C	0.73509	0.391548	0.219448
2075	H	0.7794	0.379521	0.180308
2076	H	0.774934	0.361099	0.239824
2077	C	0.717302	0.400277	0.169179
2078	H	0.734398	0.412333	0.144848
2079	H	0.698224	0.416988	0.177674
2080	C	0.711373	0.373155	0.254667
2081	H	0.723127	0.365454	0.289658
2082	H	0.693429	0.389972	0.266007
2083	C	0.540156	0.394963	0.063661
2084	C	0.51182	0.417103	0.049431
2085	C	0.555501	0.384743	0.011817
2086	C	0.531907	0.367453	0.307684
2087	H	0.574922	0.36897	0.020778
2088	H	0.56539	0.405459	0.992666
2089	C	0.503387	0.390409	0.297989
2090	C	0.985955	0.40087	0.015678
2091	H	0.511803	0.411236	0.277287
2092	H	0.486621	0.378282	0.273148
2093	H	0.52001	0.437758	0.028066
2094	H	0.502122	0.425634	0.085414
2095	C	0.973711	0.370248	0.042535
2096	C	0.001283	0.346713	0.055214
2097	H	0.956296	0.358566	0.018013
2098	H	0.961383	0.376808	0.077634
2099	C	0.518691	0.338545	0.004332
2100	H	0.501491	0.326479	0.313522
2101	H	0.538072	0.322011	0.012013
2102	C	0.525331	0.364757	0.089948
2103	H	0.514173	0.371973	0.125702
2104	H	0.543488	0.347777	0.099667
2105	C	0.84006	0.03734	0.00698
2106	C	0.81265	0.014445	0.323578
2107	C	0.852286	0.054708	0.29093
2108	C	0.86488	0.031652	0.247936
2109	H	0.871107	0.070772	0.302695
2110	H	0.833377	0.069166	0.274829
2111	C	0.83634	0.009024	0.234562
2112	C	0.822947	0.490135	0.282482
2113	H	0.817931	0.023782	0.217704
2114	H	0.843351	0.992	0.205335
2115	H	0.793148	0.027359	0.306134
2116	H	0.803351	0.002381	0.024034
2117	C	0.851416	0.470511	0.303103
2118	C	0.88044	0.491071	0.318379
2119	H	0.856929	0.452888	0.273967
2120	H	0.845464	0.457472	0.337635
2121	C	0.892028	0.012531	0.273762
2122	H	0.90363	0.998409	0.244951
2123	H	0.910447	0.028606	0.28774
2124	C	0.867973	0.015113	0.027024
2125	H	0.85993	0.002234	0.060774
2126	H	0.888009	0.029486	0.038868
2127	C	0.89613	0.204706	0.181908
2128	C	0.923876	0.226562	0.163346
2129	C	0.886686	0.183957	0.133238
2130	C	0.875143	0.204142	0.085756
2131	H	0.868006	0.167461	0.142836
2132	H	0.907031	0.169712	0.122295
2133	C	0.904053	0.226065	0.07223
2134	C	0.914625	0.248048	0.117725
2135	H	0.923484	0.210574	0.061235
2136	H	0.898954	0.241052	0.039354
2137	H	0.944429	0.21206	0.153306
2138	H	0.931286	0.242472	0.193662
2139	C	0.884684	0.268235	0.131618
2140	C	0.85597	0.247892	0.14941
2141	H	0.878812	0.282703	0.098372
2142	H	0.889209	0.284639	0.162807
2143	C	0.846546	0.223834	0.107061
2144	H	0.835145	0.236569	0.076484
2145	H	0.828271	0.207863	0.121586
2146	C	0.867586	0.226965	0.195624
2147	H	0.87424	0.242096	0.227699
2148	H	0.848011	0.212227	0.207862
2149	C	0.951475	0.088447	0.093041
2150	C	0.968489	0.061932	0.061656
2151	C	0.933047	0.109178	0.05287
2152	C	0.955062	0.124298	0.344457
2153	H	0.920646	0.128013	0.072645
2154	H	0.915081	0.094666	0.034256
2155	C	0.973597	0.096266	0.317213
2156	C	0.493105	0.074422	0.022485
2157	H	0.956905	0.081555	0.295989
2158	H	0.989554	0.106701	0.289093
2159	H	0.951416	0.047824	0.040028
2160	H	0.979363	0.046345	0.089594
2161	C	0.51746	0.095767	0.050812
2162	C	0.502056	0.124849	0.077221
2163	H	0.535163	0.102059	0.022474
2164	H	0.530324	0.083007	0.080617
2165	C	0.980667	0.143715	0.039796
2166	H	0.994932	0.154666	0.343274
2167	H	0.969469	0.162731	0.061784
2168	C	0.978269	0.110278	0.118209
2169	H	0.991511	0.096463	0.14625
2170	H	0.967177	0.129605	0.139265
2171	C	0.793316	0.150055	0.255358
2172	C	0.769684	0.176834	0.238564
2173	C	0.81157	0.139106	0.20607
2174	C	0.78954	0.126703	0.161664
2175	H	0.827969	0.120553	0.217409
2176	H	0.825445	0.158832	0.191751
2177	C	0.766288	0.154921	0.148856
2178	C	0.746116	0.166503	0.196407
2179	H	0.780698	0.174199	0.133889
2180	H	0.749838	0.148428	0.118577
2181	H	0.782276	0.196849	0.221929
2182	H	0.757035	0.185403	0.272291
2183	C	0.727087	0.13684	0.214114
2184	C	0.748498	0.108477	0.229659
2185	H	0.710719	0.130845	0.183311
2186	H	0.712614	0.141681	0.247595
2187	C	0.771123	0.09842	0.185653
2188	H	0.758058	0.086626	0.155785
2189	H	0.787652	0.080447	0.199737
2190	C	0.771447	0.121369	0.273162
2191	H	0.75773	0.128596	0.306514
2192	H	0.786444	0.101913	0.285005
2193	C	0.57902	0.354414	0.248918
2194	C	0.59337	0.33454	0.212586
2195	C	0.576395	0.31186	0.184068
2196	C	0.543086	0.313334	0.190669
2197	C	0.528505	0.334334	0.225151
2198	C	0.546274	0.353772	0.258766
2199	H	0.52846	0.298691	0.171003
2200	H	0.616926	0.336886	0.207371
2201	H	0.593257	0.368826	0.269467
2202	H	0.504533	0.332855	0.228732
2203	C	0.65635	0.387023	0.080062
2204	C	0.642796	0.407444	0.04327
2205	C	0.660939	0.429152	0.014508
2206	C	0.694133	0.426132	0.021888
2207	C	0.707671	0.4047	0.056601
2208	C	0.689126	0.386071	0.090174
2209	H	0.709719	0.439915	0.002613
2210	H	0.619041	0.406692	0.038231
2211	H	0.641721	0.373046	0.100582
2212	H	0.731688	0.405215	0.060147
2213	C	0.632737	0.328611	0.000677
2214	C	0.65144	0.343233	0.296139
2215	C	0.672855	0.326302	0.264952
2216	C	0.672021	0.293034	0.27276
2217	C	0.651806	0.278226	0.974917
2218	C	0.632843	0.295629	0.00962
2219	H	0.686477	0.278483	0.252702
2220	H	0.649523	0.367035	0.292355
2221	H	0.619979	0.342973	0.023503
2222	H	0.653502	0.254254	0.978256
2223	C	0.604374	0.409301	0.166697
2224	C	0.584868	0.394436	0.130414
2225	C	0.563989	0.411458	0.09867
2226	C	0.567009	0.444686	0.102531
2227	C	0.589027	0.459653	0.13475
2228	C	0.606503	0.442434	0.171589
2229	H	0.552278	0.458885	0.082811
2230	H	0.585764	0.370582	0.128438
2231	H	0.616253	0.395267	0.190957
2232	H	0.588914	0.483772	0.13554
2233	C	0.836482	0.10075	0.115125
2234	C	0.847692	0.077625	0.080594
2235	C	0.827794	0.062095	0.045198
2236	C	0.796659	0.074706	0.043323
2237	C	0.786213	0.099671	0.074482
2238	C	0.805128	0.112003	0.114495
2239	H	0.780301	0.066046	0.018904
2240	H	0.870903	0.07215	0.081803
2241	H	0.851978	0.11082	0.139506
2242	H	0.762865	0.105562	0.07194
2243	C	0.912257	0.135853	0.277553
2244	C	0.897416	0.154909	0.239989
2245	C	0.907073	0.186132	0.229164
2246	C	0.927654	0.198916	0.266535
2247	C	0.942855	0.179956	0.303012
2248	C	0.937269	0.146851	0.308118
2249	H	0.933191	0.22231	0.267176
2250	H	0.879722	0.1455	0.21911
2251	H	0.905081	0.113282	0.282793
2252	H	0.958727	0.191592	0.325267
2253	C	0.888642	0.078878	0.199632
2254	C	0.911317	0.091842	0.165903
2255	C	0.928325	0.073071	0.130999
2256	C	0.919386	0.040521	0.131171
2257	C	0.895497	0.028165	0.162884
2258	C	0.880684	0.046642	0.20111
2259	H	0.929802	0.024612	0.107553
2260	H	0.914963	0.115567	0.165947
2261	H	0.87609	0.093541	0.221949
2262	H	0.891203	0.004424	0.160912
2263	C	0.856281	0.155136	0.032208
2264	C	0.835632	0.142879	0.327527
2265	C	0.817314	0.162548	0.295083
2266	C	0.825849	0.194966	0.29835
2267	C	0.849209	0.206611	0.997969
2268	C	0.862087	0.187845	0.037686
2269	H	0.815029	0.211736	0.277066
2270	H	0.8332	0.119131	0.324932
2271	H	0.867125	0.139996	0.056411
2272	H	0.852834	0.230486	0.997377
2273	C	0.551454	0.190489	0.141903
2274	C	0.531361	0.163968	0.136874
2275	C	0.528517	0.148163	0.089822
2276	C	0.548819	0.159224	0.050089
2277	C	0.567434	0.186246	0.054429
2278	C	0.568079	0.204023	0.099684
2279	H	0.547968	0.150033	0.347521
2280	H	0.517909	0.15713	0.167301
2281	H	0.552848	0.200207	0.177334
2282	H	0.579707	0.192917	0.022826
2283	C	0.695759	0.044962	0.292959
2284	C	0.718545	0.068962	0.287065
2285	C	0.725776	0.081059	0.23846
2286	C	0.707683	0.068529	0.197158
2287	C	0.68703	0.043014	0.202391
2288	C	0.680631	0.030021	0.25062
2289	H	0.708784	0.078061	0.161465
2290	H	0.728304	0.078786	0.318899
2291	H	0.690079	0.039007	0.996157
2292	H	0.67561	0.035425	0.170427
2293	C	0.791716	0.299513	0.213101
2294	C	0.816116	0.277297	0.206906
2295	C	0.828607	0.270553	0.158224
2296	C	0.815778	0.288193	0.116897
2297	C	0.790055	0.308618	0.122594
2298	C	0.776804	0.314651	0.17096
2299	H	0.824944	0.286527	0.081001
2300	H	0.825268	0.267054	0.23885
2301	H	0.785008	0.304339	0.249635
2302	H	0.781969	0.319532	0.090515
2303	C	0.944204	0.439844	0.051374
2304	C	0.919798	0.462146	0.044601
2305	C	0.90678	0.467578	0.329302
2306	C	0.918141	0.447822	0.289285
2307	C	0.943588	0.42733	0.295238
2308	C	0.958259	0.423363	0.009624
2309	H	0.908375	0.448242	0.253694
2310	H	0.911012	0.473592	0.07574
2311	H	0.951648	0.436094	0.087844
2312	H	0.95048	0.415102	0.263714
2313	C	0.703382	0.237245	0.135023
2314	C	0.726931	0.215046	0.146528
2315	C	0.723396	0.193817	0.187599
2316	C	0.69811	0.200555	0.221707
2317	C	0.673207	0.220644	0.207756
2318	C	0.674003	0.23785	0.161649
2319	H	0.695707	0.188974	0.255522
2320	H	0.746003	0.213922	0.122834
2321	H	0.707425	0.250659	0.10346
2322	H	0.653486	0.220828	0.230216
2323	C	0.553188	0.032185	0.272146
2324	C	0.525393	0.048446	0.285267
2325	C	0.513297	0.047371	0.002068
2326	C	0.52993	0.027445	0.036922
2327	C	0.558084	0.01212	0.023753
2328	C	0.57018	0.012992	0.307471
2329	H	0.525185	0.027719	0.074974
2330	H	0.515991	0.063371	0.258756
2331	H	0.561711	0.036042	0.236264
2332	H	0.571489	0.003115	0.05223
2333	C	0.986804	0.287068	0.055034
2334	C	0.963999	0.264431	0.067654
2335	C	0.942385	0.269802	0.10765
2336	C	0.949212	0.295865	0.140096
2337	C	0.970109	0.31974	0.125061
2338	C	0.987515	0.317153	0.079356
2339	H	0.937187	0.299554	0.17322
2340	H	0.962716	0.244757	0.045354
2341	H	0.000358	0.281884	0.357389
2342	H	0.970561	0.34005	0.146107
2343	C	0.750752	0.451158	0.219426
2344	C	0.773415	0.47385	0.232847
2345	C	0.795098	0.468209	0.272672
2346	C	0.787966	0.441919	0.304574
2347	C	0.76703	0.418134	0.28906
2348	C	0.749592	0.420946	0.243436
2349	H	0.799559	0.437942	0.00459
2350	H	0.774592	0.493857	0.211264
2351	H	0.737063	0.456671	0.188752
2352	H	0.766381	0.397765	0.309949
2353	C	0.593517	0.288289	0.482461
2354	C	0.572257	0.25902	0.469998
2355	C	0.602817	0.303701	0.430191
2356	C	0.62014	0.280504	0.392313
2357	H	0.618098	0.323743	0.438533
2358	H	0.581756	0.312722	0.411245
2359	C	0.59781	0.250978	0.384441
2360	C	0.588937	0.233331	0.436367
2361	H	0.57626	0.25846	0.364787
2362	H	0.609977	0.234653	0.358989
2363	H	0.550905	0.266231	0.449554
2364	H	0.564833	0.249535	0.506702
2365	C	0.620539	0.222542	0.46184
2366	C	0.643361	0.250917	0.472736
2367	H	0.632373	0.205341	0.437092
2368	H	0.615147	0.210302	0.497568
2369	C	0.649918	0.268249	0.421153
2370	H	0.661874	0.251288	0.396434
2371	H	0.666116	0.288058	0.427794
2372	C	0.624684	0.274539	0.507709
2373	H	0.618448	0.263282	0.543837
2374	H	0.640965	0.293419	0.516538
2375	C	0.645596	0.452706	0.310409
2376	C	0.669774	0.478639	0.627133
2377	C	0.634859	0.435712	0.593579
2378	C	0.619873	0.45854	0.552575
2379	H	0.617749	0.417654	0.604314
2380	H	0.654925	0.423786	0.576149
2381	C	0.644951	0.485253	0.540703
2382	C	0.656062	0.004109	0.59014
2383	H	0.665438	0.474629	0.521879
2384	H	0.634514	0.501801	0.51356
2385	H	0.689953	0.468037	0.607463
2386	H	0.678585	0.489114	0.329002
2387	C	0.625924	0.019841	0.613131
2388	C	0.599979	0.99493	0.626493
2389	H	0.617104	0.037135	0.585558
2390	H	0.631728	0.032982	0.647876
2391	C	0.590905	0.474138	0.579504
2392	H	0.578616	0.488606	0.551801
2393	H	0.573921	0.455931	0.591211
2394	C	0.615837	0.47113	0.332615
2395	H	0.623096	0.483833	0.367002
2396	H	0.597874	0.454162	0.344165
2397	C	0.695799	0.343287	0.561632
2398	C	0.723703	0.321111	0.545594
2399	C	0.680164	0.354622	0.510229
2400	C	0.703507	0.371784	0.472164
2401	H	0.661274	0.370641	0.520037
2402	H	0.669738	0.334591	0.490298
2403	C	0.731586	0.348375	0.461242
2404	C	0.749386	0.337399	0.511456
2405	H	0.722517	0.327798	0.440599
2406	H	0.748517	0.360055	0.436142
2407	H	0.71475	0.300745	0.524296
2408	H	0.733947	0.312108	0.580869
2409	C	0.762203	0.367826	0.538542
2410	C	0.73509	0.391548	0.55278
2411	H	0.7794	0.379521	0.513641
2412	H	0.774934	0.361099	0.573157
2413	C	0.717302	0.400277	0.502513
2414	H	0.734398	0.412333	0.478179
2415	H	0.698224	0.416988	0.511006
2416	C	0.711373	0.373155	0.588001
2417	H	0.723127	0.365454	0.62299
2418	H	0.693429	0.389972	0.599339
2419	C	0.540156	0.394963	0.396995
2420	C	0.51182	0.417103	0.382764
2421	C	0.555501	0.384743	0.34515
2422	C	0.531907	0.367453	0.641018
2423	H	0.574922	0.36897	0.354111
2424	H	0.56539	0.405459	0.326002
2425	C	0.503387	0.390409	0.631323
2426	C	0.985955	0.40087	0.349011
2427	H	0.511803	0.411236	0.610619
2428	H	0.486621	0.378282	0.606483
2429	H	0.52001	0.437758	0.361399
2430	H	0.502122	0.425634	0.418747
2431	C	0.973711	0.370248	0.375868
2432	C	0.001283	0.346713	0.388547
2433	H	0.956296	0.358566	0.351346
2434	H	0.961383	0.376808	0.410967
2435	C	0.518691	0.338545	0.337664
2436	H	0.501491	0.326479	0.646854
2437	H	0.538072	0.322011	0.345346
2438	C	0.525331	0.364757	0.42328
2439	H	0.514173	0.371973	0.459035
2440	H	0.543488	0.347777	0.433001
2441	C	0.84006	0.03734	0.340313
2442	C	0.81265	0.014445	0.656911
2443	C	0.852286	0.054708	0.624263
2444	C	0.86488	0.031652	0.581269
2445	H	0.871107	0.070772	0.636027
2446	H	0.833377	0.069166	0.608164
2447	C	0.83634	0.009024	0.567896
2448	C	0.822947	0.490135	0.615815
2449	H	0.817931	0.023782	0.551034
2450	H	0.843351	0.992	0.538668
2451	H	0.793148	0.027359	0.639466
2452	H	0.803351	0.002381	0.357367
2453	C	0.851416	0.470511	0.636435
2454	C	0.88044	0.491071	0.651711
2455	H	0.856929	0.452888	0.607299
2456	H	0.845464	0.457472	0.670966
2457	C	0.892028	0.012531	0.607097
2458	H	0.90363	0.998409	0.578284
2459	H	0.910447	0.028606	0.621072
2460	C	0.867973	0.015113	0.360357
2461	H	0.85993	0.002234	0.394109
2462	H	0.888009	0.029486	0.372201
2463	C	0.89613	0.204706	0.515242
2464	C	0.923876	0.226562	0.49668
2465	C	0.886686	0.183957	0.466571
2466	C	0.875143	0.204142	0.41909
2467	H	0.868006	0.167461	0.47617
2468	H	0.907031	0.169712	0.455626
2469	C	0.904053	0.226065	0.405565
2470	C	0.914625	0.248048	0.451059
2471	H	0.923484	0.210574	0.394566
2472	H	0.898954	0.241052	0.372686
2473	H	0.944429	0.21206	0.486639
2474	H	0.931286	0.242472	0.526995
2475	C	0.884684	0.268235	0.464951
2476	C	0.85597	0.247892	0.482743
2477	H	0.878812	0.282703	0.431705
2478	H	0.889209	0.284639	0.496139
2479	C	0.846546	0.223834	0.440393
2480	H	0.835145	0.236569	0.409815
2481	H	0.828271	0.207863	0.454917
2482	C	0.867586	0.226965	0.528958
2483	H	0.87424	0.242096	0.561034
2484	H	0.848011	0.212227	0.541195
2485	C	0.951475	0.088447	0.426372
2486	C	0.968489	0.061932	0.39499
2487	C	0.933047	0.109178	0.386202
2488	C	0.955062	0.124298	0.67779
2489	H	0.920646	0.128013	0.405976
2490	H	0.915081	0.094666	0.367589
2491	C	0.973597	0.096266	0.650548
2492	C	0.493105	0.074422	0.355818
2493	H	0.956905	0.081555	0.629322
2494	H	0.989554	0.106701	0.622425
2495	H	0.951416	0.047824	0.373361
2496	H	0.979363	0.046345	0.422925
2497	C	0.51746	0.095767	0.384144
2498	C	0.502056	0.124849	0.410555
2499	H	0.535163	0.102059	0.355807
2500	H	0.530324	0.083007	0.413951
2501	C	0.980667	0.143715	0.373129
2502	H	0.994932	0.154666	0.676608
2503	H	0.969469	0.162731	0.395115
2504	C	0.978269	0.110278	0.451544
2505	H	0.991511	0.096463	0.479582
2506	H	0.967177	0.129605	0.472598
2507	C	0.793316	0.150055	0.588691
2508	C	0.769684	0.176834	0.571895
2509	C	0.81157	0.139106	0.539403
2510	C	0.78954	0.126703	0.494995
2511	H	0.827969	0.120553	0.550741
2512	H	0.825445	0.158832	0.525085
2513	C	0.766288	0.154921	0.48219
2514	C	0.746116	0.166503	0.529739
2515	H	0.780698	0.174199	0.467223
2516	H	0.749838	0.148428	0.45191
2517	H	0.782276	0.196849	0.555262
2518	H	0.757035	0.185403	0.605625
2519	C	0.727087	0.13684	0.547447
2520	C	0.748498	0.108477	0.562993
2521	H	0.710719	0.130845	0.516645
2522	H	0.712614	0.141681	0.58093
2523	C	0.771123	0.09842	0.518985
2524	H	0.758058	0.086626	0.489117
2525	H	0.787652	0.080447	0.533071
2526	C	0.771447	0.121369	0.606494
2527	H	0.75773	0.128596	0.639847
2528	H	0.786444	0.101913	0.618339
2529	C	0.57902	0.354414	0.582252
2530	C	0.59337	0.33454	0.545918
2531	C	0.576395	0.31186	0.517399
2532	C	0.543086	0.313334	0.524002
2533	C	0.528505	0.334334	0.558483
2534	C	0.546274	0.353772	0.592099
2535	H	0.52846	0.298691	0.504335
2536	H	0.616926	0.336886	0.540703
2537	H	0.593257	0.368826	0.6028
2538	H	0.504533	0.332855	0.562063
2539	C	0.65635	0.387023	0.413395
2540	C	0.642796	0.407444	0.376603
2541	C	0.660939	0.429152	0.347841
2542	C	0.694133	0.426132	0.355221
2543	C	0.707671	0.4047	0.389935
2544	C	0.689126	0.386071	0.423505
2545	H	0.709719	0.439915	0.335946
2546	H	0.619041	0.406692	0.371564
2547	H	0.641721	0.373046	0.433916
2548	H	0.731688	0.405215	0.39348
2549	C	0.632737	0.328611	0.33401
2550	C	0.65144	0.343233	0.62947
2551	C	0.672855	0.326302	0.598287
2552	C	0.672021	0.293034	0.606094
2553	C	0.651806	0.278226	0.308251
2554	C	0.632843	0.295629	0.342952
2555	H	0.686477	0.278483	0.586034
2556	H	0.649523	0.367035	0.625689
2557	H	0.619979	0.342973	0.356835
2558	H	0.653502	0.254254	0.31159
2559	C	0.604374	0.409301	0.500031
2560	C	0.584868	0.394436	0.463746
2561	C	0.563989	0.411458	0.432002
2562	C	0.567009	0.444686	0.435864
2563	C	0.589027	0.459653	0.468085
2564	C	0.606503	0.442434	0.504922
2565	H	0.552278	0.458885	0.416144
2566	H	0.585764	0.370582	0.461772
2567	H	0.616253	0.395267	0.524288
2568	H	0.588914	0.483772	0.468874
2569	C	0.836482	0.10075	0.44846
2570	C	0.847692	0.077625	0.413925
2571	C	0.827794	0.062095	0.378531
2572	C	0.796659	0.074706	0.376656
2573	C	0.786213	0.099671	0.407814
2574	C	0.805128	0.112003	0.447827
2575	H	0.780301	0.066046	0.352237
2576	H	0.870903	0.07215	0.415137
2577	H	0.851978	0.11082	0.472839
2578	H	0.762865	0.105562	0.405275
2579	C	0.912257	0.135853	0.610886
2580	C	0.897416	0.154909	0.57332
2581	C	0.907073	0.186132	0.562498
2582	C	0.927654	0.198916	0.599869
2583	C	0.942855	0.179956	0.636344
2584	C	0.937269	0.146851	0.641452
2585	H	0.933191	0.22231	0.600509
2586	H	0.879722	0.1455	0.552445
2587	H	0.905081	0.113282	0.616124
2588	H	0.958727	0.191592	0.658599
2589	C	0.888642	0.078878	0.532965
2590	C	0.911317	0.091842	0.499234
2591	C	0.928325	0.073071	0.464334
2592	C	0.919386	0.040521	0.464505
2593	C	0.895497	0.028165	0.496219
2594	C	0.880684	0.046642	0.534444
2595	H	0.929802	0.024612	0.440885
2596	H	0.914963	0.115567	0.49928
2597	H	0.87609	0.093541	0.555281
2598	H	0.891203	0.004424	0.494244
2599	C	0.856281	0.155136	0.365541
2600	C	0.835632	0.142879	0.66086
2601	C	0.817314	0.162548	0.628414
2602	C	0.825849	0.194966	0.631681
2603	C	0.849209	0.206611	0.331302
2604	C	0.862087	0.187845	0.371019
2605	H	0.815029	0.211736	0.610398
2606	H	0.8332	0.119131	0.658264
2607	H	0.867125	0.139996	0.389744
2608	H	0.852834	0.230486	0.33071
2609	C	0.551454	0.190489	0.475236
2610	C	0.531361	0.163968	0.470208
2611	C	0.528517	0.148163	0.423154
2612	C	0.548819	0.159224	0.383423
2613	C	0.567434	0.186246	0.387762
2614	C	0.568079	0.204023	0.433016
2615	H	0.547968	0.150033	0.680855
2616	H	0.517909	0.15713	0.500633
2617	H	0.552848	0.200207	0.510667
2618	H	0.579707	0.192917	0.356159
2619	C	0.695759	0.044962	0.626291
2620	C	0.718545	0.068962	0.620397
2621	C	0.725776	0.081059	0.571792
2622	C	0.707683	0.068529	0.53049
2623	C	0.68703	0.043014	0.535725
2624	C	0.680631	0.030021	0.583953
2625	H	0.708784	0.078061	0.494797
2626	H	0.728304	0.078786	0.652233
2627	H	0.690079	0.039007	0.32949
2628	H	0.67561	0.035425	0.503759
2629	C	0.791716	0.299513	0.546433
2630	C	0.816116	0.277297	0.540238
2631	C	0.828607	0.270553	0.491556
2632	C	0.815778	0.288193	0.450228
2633	C	0.790055	0.308618	0.455928
2634	C	0.776804	0.314651	0.504293
2635	H	0.824944	0.286527	0.414333
2636	H	0.825268	0.267054	0.572184
2637	H	0.785008	0.304339	0.582969
2638	H	0.781969	0.319532	0.423848
2639	C	0.944204	0.439844	0.384708
2640	C	0.919798	0.462146	0.377934
2641	C	0.90678	0.467578	0.662637
2642	C	0.918141	0.447822	0.62262
2643	C	0.943588	0.42733	0.628571
2644	C	0.958259	0.423363	0.342957
2645	H	0.908375	0.448242	0.587025
2646	H	0.911012	0.473592	0.409072
2647	H	0.951648	0.436094	0.421176
2648	H	0.95048	0.415102	0.597048
2649	C	0.703382	0.237245	0.468355
2650	C	0.726931	0.215046	0.479861
2651	C	0.723396	0.193817	0.520933
2652	C	0.69811	0.200555	0.555041
2653	C	0.673207	0.220644	0.541088
2654	C	0.674003	0.23785	0.494984
2655	H	0.695707	0.188974	0.588855
2656	H	0.746003	0.213922	0.456168
2657	H	0.707425	0.250659	0.436794
2658	H	0.653486	0.220828	0.56355
2659	C	0.553188	0.032185	0.605476
2660	C	0.525393	0.048446	0.618598
2661	C	0.513297	0.047371	0.335401
2662	C	0.52993	0.027445	0.370255
2663	C	0.558084	0.01212	0.357085
2664	C	0.57018	0.012992	0.640804
2665	H	0.525185	0.027719	0.408306
2666	H	0.515991	0.063371	0.592088
2667	H	0.561711	0.036042	0.569596
2668	H	0.571489	0.003115	0.385562
2669	C	0.986804	0.287068	0.388368
2670	C	0.963999	0.264431	0.400986
2671	C	0.942385	0.269802	0.440984
2672	C	0.949212	0.295865	0.473429
2673	C	0.970109	0.31974	0.458394
2674	C	0.987515	0.317153	0.41269
2675	H	0.937187	0.299554	0.506554
2676	H	0.962716	0.244757	0.378687
2677	H	0.000358	0.281884	0.690721
2678	H	0.970561	0.34005	0.479437
2679	C	0.750752	0.451158	0.552757
2680	C	0.773415	0.47385	0.56618
2681	C	0.795098	0.468209	0.606006
2682	C	0.787966	0.441919	0.637907
2683	C	0.76703	0.418134	0.622391
2684	C	0.749592	0.420946	0.576767
2685	H	0.799559	0.437942	0.337923
2686	H	0.774592	0.493857	0.544596
2687	H	0.737063	0.456671	0.522085
2688	H	0.766381	0.397765	0.643282
2689	C	0.593517	0.288289	0.815792
2690	C	0.572257	0.25902	0.80333
2691	C	0.602817	0.303701	0.763526
2692	C	0.62014	0.280504	0.725645
2693	H	0.618098	0.323743	0.771867
2694	H	0.581756	0.312722	0.744576
2695	C	0.59781	0.250978	0.717776
2696	C	0.588937	0.233331	0.769698
2697	H	0.57626	0.25846	0.69812
2698	H	0.609977	0.234653	0.692322
2699	H	0.550905	0.266231	0.782885
2700	H	0.564833	0.249535	0.840037
2701	C	0.620539	0.222542	0.795171
2702	C	0.643361	0.250917	0.806067
2703	H	0.632373	0.205341	0.770426
2704	H	0.615147	0.210302	0.830899
2705	C	0.649918	0.268249	0.754484
2706	H	0.661874	0.251288	0.729766
2707	H	0.666116	0.288058	0.761125
2708	C	0.624684	0.274539	0.84104
2709	H	0.618448	0.263282	0.877168
2710	H	0.640965	0.293419	0.849873
2711	C	0.645596	0.452706	0.643743
2712	C	0.669774	0.478639	0.960468
2713	C	0.634859	0.435712	0.926913
2714	C	0.619873	0.45854	0.885906
2715	H	0.617749	0.417654	0.937649
2716	H	0.654925	0.423786	0.90948
2717	C	0.644951	0.485253	0.874038
2718	C	0.656062	0.004109	0.923475
2719	H	0.665438	0.474629	0.85521
2720	H	0.634514	0.501801	0.846895
2721	H	0.689953	0.468037	0.940794
2722	H	0.678585	0.489114	0.662335
2723	C	0.625924	0.019841	0.946466
2724	C	0.599979	0.99493	0.959824
2725	H	0.617104	0.037135	0.918893
2726	H	0.631728	0.032982	0.981211
2727	C	0.590905	0.474138	0.912835
2728	H	0.578616	0.488606	0.885132
2729	H	0.573921	0.455931	0.924546
2730	C	0.615837	0.47113	0.665949
2731	H	0.623096	0.483833	0.700335
2732	H	0.597874	0.454162	0.677496
2733	C	0.695799	0.343287	0.894967
2734	C	0.723703	0.321111	0.878925
2735	C	0.680164	0.354622	0.84356
2736	C	0.703507	0.371784	0.805499
2737	H	0.661274	0.370641	0.853372
2738	H	0.669738	0.334591	0.82363
2739	C	0.731586	0.348375	0.794577
2740	C	0.749386	0.337399	0.844787
2741	H	0.722517	0.327798	0.773934
2742	H	0.748517	0.360055	0.769477
2743	H	0.71475	0.300745	0.857627
2744	H	0.733947	0.312108	0.9142
2745	C	0.762203	0.367826	0.871877
2746	C	0.73509	0.391548	0.886111
2747	H	0.7794	0.379521	0.846975
2748	H	0.774934	0.361099	0.906488
2749	C	0.717302	0.400277	0.835844
2750	H	0.734398	0.412333	0.811514
2751	H	0.698224	0.416988	0.844341
2752	C	0.711373	0.373155	0.921332
2753	H	0.723127	0.365454	0.956325
2754	H	0.693429	0.389972	0.932674
2755	C	0.540156	0.394963	0.730326
2756	C	0.51182	0.417103	0.716095
2757	C	0.555501	0.384743	0.678484
2758	C	0.531907	0.367453	0.974349
2759	H	0.574922	0.36897	0.687442
2760	H	0.56539	0.405459	0.659335
2761	C	0.503387	0.390409	0.964654
2762	C	0.985955	0.40087	0.682346
2763	H	0.511803	0.411236	0.943954
2764	H	0.486621	0.378282	0.939814
2765	H	0.52001	0.437758	0.694731
2766	H	0.502122	0.425634	0.752078
2767	C	0.973711	0.370248	0.709199
2768	C	0.001283	0.346713	0.721878
2769	H	0.956296	0.358566	0.684679
2770	H	0.961383	0.376808	0.744301
2771	C	0.518691	0.338545	0.670997
2772	H	0.501491	0.326479	0.980189
2773	H	0.538072	0.322011	0.678678
2774	C	0.525331	0.364757	0.756615
2775	H	0.514173	0.371973	0.792366
2776	H	0.543488	0.347777	0.766332
2777	C	0.84006	0.03734	0.673646
2778	C	0.81265	0.014445	0.990242
2779	C	0.852286	0.054708	0.957594
2780	C	0.86488	0.031652	0.9146
2781	H	0.871107	0.070772	0.969362
2782	H	0.833377	0.069166	0.941495
2783	C	0.83634	0.009024	0.901227
2784	C	0.822947	0.490135	0.949146
2785	H	0.817931	0.023782	0.884369
2786	H	0.843351	0.992	0.871999
2787	H	0.793148	0.027359	0.972801
2788	H	0.803351	0.002381	0.690698
2789	C	0.851416	0.470511	0.96977
2790	C	0.88044	0.491071	0.985046
2791	H	0.856929	0.452888	0.940634
2792	H	0.845464	0.457472	0.004302
2793	C	0.892028	0.012531	0.940428
2794	H	0.90363	0.998409	0.911615
2795	H	0.910447	0.028606	0.954407
2796	C	0.867973	0.015113	0.693691
2797	H	0.85993	0.002234	0.72744
2798	H	0.888009	0.029486	0.705535
2799	C	0.89613	0.204706	0.848573
2800	C	0.923876	0.226562	0.830011
2801	C	0.886686	0.183957	0.799902
2802	C	0.875143	0.204142	0.752421
2803	H	0.868006	0.167461	0.809501
2804	H	0.907031	0.169712	0.788961
2805	C	0.904053	0.226065	0.738896
2806	C	0.914625	0.248048	0.784391
2807	H	0.923484	0.210574	0.727901
2808	H	0.898954	0.241052	0.706019
2809	H	0.944429	0.21206	0.81997
2810	H	0.931286	0.242472	0.860326
2811	C	0.884684	0.268235	0.798282
2812	C	0.85597	0.247892	0.816074
2813	H	0.878812	0.282703	0.765036
2814	H	0.889209	0.284639	0.829474
2815	C	0.846546	0.223834	0.773728
2816	H	0.835145	0.236569	0.74315
2817	H	0.828271	0.207863	0.788252
2818	C	0.867586	0.226965	0.862289
2819	H	0.87424	0.242096	0.894365
2820	H	0.848011	0.212227	0.874526
2821	C	0.951475	0.088447	0.759707
2822	C	0.968489	0.061932	0.728321
2823	C	0.933047	0.109178	0.719534
2824	C	0.955062	0.124298	0.011124
2825	H	0.920646	0.128013	0.739311
2826	H	0.915081	0.094666	0.700922
2827	C	0.973597	0.096266	0.983879
2828	C	0.493105	0.074422	0.68915
2829	H	0.956905	0.081555	0.962657
2830	H	0.989554	0.106701	0.95576
2831	H	0.951416	0.047824	0.706694
2832	H	0.979363	0.046345	0.75626
2833	C	0.51746	0.095767	0.717479
2834	C	0.502056	0.124849	0.743886
2835	H	0.535163	0.102059	0.689139
2836	H	0.530324	0.083007	0.747283
2837	C	0.980667	0.143715	0.706462
2838	H	0.994932	0.154666	0.009941
2839	H	0.969469	0.162731	0.72845
2840	C	0.978269	0.110278	0.784875
2841	H	0.991511	0.096463	0.812917
2842	H	0.967177	0.129605	0.805929
2843	C	0.793316	0.150055	0.922022
2844	C	0.769684	0.176834	0.90523
2845	C	0.81157	0.139106	0.872734
2846	C	0.78954	0.126703	0.82833
2847	H	0.827969	0.120553	0.884076
2848	H	0.825445	0.158832	0.858416
2849	C	0.766288	0.154921	0.815521
2850	C	0.746116	0.166503	0.863071
2851	H	0.780698	0.174199	0.800554
2852	H	0.749838	0.148428	0.785241
2853	H	0.782276	0.196849	0.888593
2854	H	0.757035	0.185403	0.938956
2855	C	0.727087	0.13684	0.880778
2856	C	0.748498	0.108477	0.896324
2857	H	0.710719	0.130845	0.849976
2858	H	0.712614	0.141681	0.914261
2859	C	0.771123	0.09842	0.852316
2860	H	0.758058	0.086626	0.822452
2861	H	0.787652	0.080447	0.866402
2862	C	0.771447	0.121369	0.939829
2863	H	0.75773	0.128596	0.973178
2864	H	0.786444	0.101913	0.95167
2865	C	0.57902	0.354414	0.915584
2866	C	0.59337	0.33454	0.879249
2867	C	0.576395	0.31186	0.850734
2868	C	0.543086	0.313334	0.857333
2869	C	0.528505	0.334334	0.891815
2870	C	0.546274	0.353772	0.92543
2871	H	0.52846	0.298691	0.83767
2872	H	0.616926	0.336886	0.874038
2873	H	0.593257	0.368826	0.936131
2874	H	0.504533	0.332855	0.895398
2875	C	0.65635	0.387023	0.746726
2876	C	0.642796	0.407444	0.709934
2877	C	0.660939	0.429152	0.681175
2878	C	0.694133	0.426132	0.688552
2879	C	0.707671	0.4047	0.723266
2880	C	0.689126	0.386071	0.75684
2881	H	0.709719	0.439915	0.669277
2882	H	0.619041	0.406692	0.704899
2883	H	0.641721	0.373046	0.767247
2884	H	0.731688	0.405215	0.726811
2885	C	0.632737	0.328611	0.667345
2886	C	0.65144	0.343233	0.962805
2887	C	0.672855	0.326302	0.931618
2888	C	0.672021	0.293034	0.939425
2889	C	0.651806	0.278226	0.641586
2890	C	0.632843	0.295629	0.676284
2891	H	0.686477	0.278483	0.919369
2892	H	0.649523	0.367035	0.95902
2893	H	0.619979	0.342973	0.690168
2894	H	0.653502	0.254254	0.644921
2895	C	0.604374	0.409301	0.833362
2896	C	0.584868	0.394436	0.797081
2897	C	0.563989	0.411458	0.765337
2898	C	0.567009	0.444686	0.769195
2899	C	0.589027	0.459653	0.801416
2900	C	0.606503	0.442434	0.838253
2901	H	0.552278	0.458885	0.749478
2902	H	0.585764	0.370582	0.795103
2903	H	0.616253	0.395267	0.857623
2904	H	0.588914	0.483772	0.802205
2905	C	0.836482	0.10075	0.781791
2906	C	0.847692	0.077625	0.74726
2907	C	0.827794	0.062095	0.711863
2908	C	0.796659	0.074706	0.709988
2909	C	0.786213	0.099671	0.741149
2910	C	0.805128	0.112003	0.781162
2911	H	0.780301	0.066046	0.685571
2912	H	0.870903	0.07215	0.748468
2913	H	0.851978	0.11082	0.80617
2914	H	0.762865	0.105562	0.738606
2915	C	0.912257	0.135853	0.944217
2916	C	0.897416	0.154909	0.906655
2917	C	0.907073	0.186132	0.895829
2918	C	0.927654	0.198916	0.9332
2919	C	0.942855	0.179956	0.969679
2920	C	0.937269	0.146851	0.974783
2921	H	0.933191	0.22231	0.93384
2922	H	0.879722	0.1455	0.885776
2923	H	0.905081	0.113282	0.949459
2924	H	0.958727	0.191592	0.991934
2925	C	0.888642	0.078878	0.866299
2926	C	0.911317	0.091842	0.832569
2927	C	0.928325	0.073071	0.797665
2928	C	0.919386	0.040521	0.797836
2929	C	0.895497	0.028165	0.82955
2930	C	0.880684	0.046642	0.867775
2931	H	0.929802	0.024612	0.77422
2932	H	0.914963	0.115567	0.832611
2933	H	0.87609	0.093541	0.888616
2934	H	0.891203	0.004424	0.827579
2935	C	0.856281	0.155136	0.698875
2936	C	0.835632	0.142879	0.994191
2937	C	0.817314	0.162548	0.961749
2938	C	0.825849	0.194966	0.965016
2939	C	0.849209	0.206611	0.664634
2940	C	0.862087	0.187845	0.704353
2941	H	0.815029	0.211736	0.943733
2942	H	0.8332	0.119131	0.991599
2943	H	0.867125	0.139996	0.723075
2944	H	0.852834	0.230486	0.664043
2945	C	0.551454	0.190489	0.808568
2946	C	0.531361	0.163968	0.803539
2947	C	0.528517	0.148163	0.756489
2948	C	0.548819	0.159224	0.716754
2949	C	0.567434	0.186246	0.721093
2950	C	0.568079	0.204023	0.766351
2951	H	0.547968	0.150033	0.014188
2952	H	0.517909	0.15713	0.833964
2953	H	0.552848	0.200207	0.844002
2954	H	0.579707	0.192917	0.689493
2955	C	0.695759	0.044962	0.959626
2956	C	0.718545	0.068962	0.953728
2957	C	0.725776	0.081059	0.905127
2958	C	0.707683	0.068529	0.863822
2959	C	0.68703	0.043014	0.869056
2960	C	0.680631	0.030021	0.917288
2961	H	0.708784	0.078061	0.828132
2962	H	0.728304	0.078786	0.985564
2963	H	0.690079	0.039007	0.662823
2964	H	0.67561	0.035425	0.837094
2965	C	0.791716	0.299513	0.879768
2966	C	0.816116	0.277297	0.873573
2967	C	0.828607	0.270553	0.824891
2968	C	0.815778	0.288193	0.783563
2969	C	0.790055	0.308618	0.789259
2970	C	0.776804	0.314651	0.837624
2971	H	0.824944	0.286527	0.747668
2972	H	0.825268	0.267054	0.905516
2973	H	0.785008	0.304339	0.9163
2974	H	0.781969	0.319532	0.757179
2975	C	0.944204	0.439844	0.718039
2976	C	0.919798	0.462146	0.711265
2977	C	0.90678	0.467578	0.99597
2978	C	0.918141	0.447822	0.955951
2979	C	0.943588	0.42733	0.961906
2980	C	0.958259	0.423363	0.676288
2981	H	0.908375	0.448242	0.92036
2982	H	0.911012	0.473592	0.742407
2983	H	0.951648	0.436094	0.754511
2984	H	0.95048	0.415102	0.930379
2985	C	0.703382	0.237245	0.801686
2986	C	0.726931	0.215046	0.813196
2987	C	0.723396	0.193817	0.854264
2988	C	0.69811	0.200555	0.888372
2989	C	0.673207	0.220644	0.874423
2990	C	0.674003	0.23785	0.828315
2991	H	0.695707	0.188974	0.922186
2992	H	0.746003	0.213922	0.789499
2993	H	0.707425	0.250659	0.770125
2994	H	0.653486	0.220828	0.896881
2995	C	0.553188	0.032185	0.938811
2996	C	0.525393	0.048446	0.951933
2997	C	0.513297	0.047371	0.668732
2998	C	0.52993	0.027445	0.703587
2999	C	0.558084	0.01212	0.69042
3000	C	0.57018	0.012992	0.974135
3001	H	0.525185	0.027719	0.741641
3002	H	0.515991	0.063371	0.925423
3003	H	0.561711	0.036042	0.902931
3004	H	0.571489	0.003115	0.718897
3005	C	0.986804	0.287068	0.721699
3006	C	0.963999	0.264431	0.734321
3007	C	0.942385	0.269802	0.774315
3008	C	0.949212	0.295865	0.806761
3009	C	0.970109	0.31974	0.791725
3010	C	0.987515	0.317153	0.746021
3011	H	0.937187	0.299554	0.839885
3012	H	0.962716	0.244757	0.71202
3013	H	0.000358	0.281884	0.024056
3014	H	0.970561	0.34005	0.812772
3015	C	0.750752	0.451158	0.886092
3016	C	0.773415	0.47385	0.899511
3017	C	0.795098	0.468209	0.939337
3018	C	0.787966	0.441919	0.971238
3019	C	0.76703	0.418134	0.955726
3020	C	0.749592	0.420946	0.910102
3021	H	0.799559	0.437942	0.671256
3022	H	0.774592	0.493857	0.87793
3023	H	0.737063	0.456671	0.855419
3024	H	0.766381	0.397765	0.976613
3025	C	0.593517	0.788288	0.149128
3026	C	0.572257	0.75902	0.136665
3027	C	0.602817	0.803701	0.09686
3028	C	0.62014	0.780504	0.058979
3029	H	0.618098	0.823744	0.1052
3030	H	0.581756	0.812723	0.077912
3031	C	0.59781	0.750979	0.051109
3032	C	0.588937	0.73333	0.103033
3033	H	0.57626	0.758458	0.031454
3034	H	0.609977	0.734653	0.025656
3035	H	0.550905	0.766232	0.116219
3036	H	0.564833	0.749535	0.17337
3037	C	0.620539	0.722541	0.128507
3038	C	0.643361	0.750917	0.139403
3039	H	0.632373	0.705341	0.103759
3040	H	0.615147	0.710303	0.164234
3041	C	0.649918	0.768247	0.087819
3042	H	0.661874	0.751288	0.0631
3043	H	0.666116	0.788056	0.094459
3044	C	0.624684	0.774538	0.174375
3045	H	0.618448	0.763283	0.210504
3046	H	0.640965	0.793417	0.183205
3047	C	0.645596	0.952706	0.977074
3048	C	0.669774	0.97864	0.293802
3049	C	0.634859	0.935712	0.260247
3050	C	0.619873	0.95854	0.21924
3051	H	0.617749	0.917654	0.270981
3052	H	0.654925	0.923786	0.242816
3053	C	0.644951	0.985254	0.207372
3054	C	0.656062	0.50411	0.256808
3055	H	0.665438	0.97463	0.188546
3056	H	0.634514	0.001801	0.180229
3057	H	0.689953	0.968035	0.274129
3058	H	0.678585	0.989112	0.99567
3059	C	0.625924	0.51984	0.2798
3060	C	0.599979	0.494932	0.293159
3061	H	0.617104	0.537134	0.252227
3062	H	0.631728	0.53298	0.314545
3063	C	0.590905	0.974136	0.246171
3064	H	0.578616	0.988607	0.218467
3065	H	0.573921	0.955929	0.25788
3066	C	0.615837	0.971128	0.999282
3067	H	0.623096	0.983834	0.03367
3068	H	0.597874	0.95416	0.010832
3069	C	0.695799	0.843288	0.228301
3070	C	0.723703	0.821109	0.212261
3071	C	0.680164	0.854623	0.176896
3072	C	0.703507	0.871785	0.138833
3073	H	0.661274	0.870639	0.186706
3074	H	0.669738	0.83459	0.156965
3075	C	0.731586	0.848373	0.12791
3076	C	0.749386	0.837397	0.178123
3077	H	0.722517	0.827796	0.107268
3078	H	0.748517	0.860055	0.10281
3079	H	0.71475	0.800745	0.190962
3080	H	0.733947	0.812108	0.247534
3081	C	0.762203	0.867827	0.20521
3082	C	0.73509	0.891546	0.219448
3083	H	0.7794	0.879521	0.180308
3084	H	0.774934	0.861099	0.239824
3085	C	0.717302	0.900277	0.169179
3086	H	0.734398	0.912331	0.144848
3087	H	0.698224	0.916986	0.177674
3088	C	0.711373	0.873153	0.254667
3089	H	0.723127	0.865454	0.289658
3090	H	0.693429	0.889972	0.266007
3091	C	0.540156	0.894963	0.063661
3092	C	0.51182	0.917104	0.049431
3093	C	0.555501	0.884743	0.011817
3094	C	0.531907	0.867453	0.307684
3095	H	0.574922	0.868968	0.020778
3096	H	0.56539	0.905459	0.992666
3097	C	0.503387	0.89041	0.297989
3098	C	0.985955	0.90087	0.015678
3099	H	0.511803	0.911237	0.277287
3100	H	0.486621	0.878283	0.273148
3101	H	0.52001	0.937756	0.028066
3102	H	0.502122	0.925632	0.085414
3103	C	0.973711	0.870249	0.042535
3104	C	0.001283	0.846714	0.055214
3105	H	0.956296	0.858566	0.018013
3106	H	0.961383	0.876808	0.077634
3107	C	0.518691	0.838545	0.004332
3108	H	0.501491	0.82648	0.313522
3109	H	0.538072	0.822012	0.012013
3110	C	0.525331	0.864757	0.089948
3111	H	0.514173	0.871971	0.125702
3112	H	0.543488	0.847777	0.099667
3113	C	0.84006	0.53734	0.00698
3114	C	0.81265	0.514445	0.323578
3115	C	0.852286	0.554707	0.29093
3116	C	0.86488	0.531652	0.247936
3117	H	0.871107	0.570771	0.302695
3118	H	0.833377	0.569166	0.274829
3119	C	0.83634	0.509025	0.234562
3120	C	0.822947	0.990133	0.282482
3121	H	0.817931	0.523781	0.217704
3122	H	0.843351	0.491999	0.205335
3123	H	0.793148	0.527359	0.306134
3124	H	0.803351	0.50238	0.024034
3125	C	0.851416	0.970511	0.303103
3126	C	0.88044	0.991069	0.318379
3127	H	0.856929	0.952888	0.273967
3128	H	0.845464	0.957472	0.337635
3129	C	0.892028	0.512531	0.273762
3130	H	0.90363	0.498408	0.244951
3131	H	0.910447	0.528606	0.28774
3132	C	0.867973	0.515114	0.027024
3133	H	0.85993	0.502233	0.060774
3134	H	0.888009	0.529485	0.038868
3135	C	0.89613	0.704705	0.181908
3136	C	0.923876	0.72656	0.163346
3137	C	0.886686	0.683956	0.133238
3138	C	0.875143	0.70414	0.085756
3139	H	0.868006	0.66746	0.142836
3140	H	0.907031	0.669712	0.122295
3141	C	0.904053	0.726064	0.07223
3142	C	0.914625	0.748049	0.117725
3143	H	0.923484	0.710575	0.061235
3144	H	0.898954	0.74105	0.039354
3145	H	0.944429	0.712059	0.153306
3146	H	0.931286	0.742472	0.193662
3147	C	0.884684	0.768236	0.131618
3148	C	0.85597	0.747893	0.14941
3149	H	0.878812	0.782704	0.098372
3150	H	0.889209	0.784639	0.162807
3151	C	0.846546	0.723833	0.107061
3152	H	0.835145	0.736567	0.076484
3153	H	0.828271	0.707862	0.121586
3154	C	0.867586	0.726964	0.195624
3155	H	0.87424	0.742097	0.227699
3156	H	0.848011	0.712226	0.207862
3157	C	0.951475	0.588446	0.093041
3158	C	0.968489	0.561931	0.061656
3159	C	0.933047	0.609178	0.05287
3160	C	0.955062	0.624296	0.344457
3161	H	0.920646	0.628013	0.072645
3162	H	0.915081	0.594665	0.034256
3163	C	0.973597	0.596267	0.317213
3164	C	0.493105	0.574422	0.022485
3165	H	0.956905	0.581555	0.295989
3166	H	0.989554	0.606699	0.289093
3167	H	0.951416	0.547824	0.040028
3168	H	0.979363	0.546345	0.089594
3169	C	0.51746	0.595766	0.050812
3170	C	0.502056	0.624849	0.077221
3171	H	0.535163	0.602059	0.022474
3172	H	0.530324	0.583006	0.080617
3173	C	0.980667	0.643715	0.039796
3174	H	0.994932	0.654665	0.343274
3175	H	0.969469	0.66273	0.061784
3176	C	0.978269	0.610277	0.118209
3177	H	0.991511	0.596463	0.14625
3178	H	0.967177	0.629604	0.139265
3179	C	0.793316	0.650055	0.255358
3180	C	0.769684	0.676834	0.238564
3181	C	0.81157	0.639105	0.20607
3182	C	0.78954	0.626702	0.161664
3183	H	0.827969	0.620553	0.217409
3184	H	0.825445	0.658831	0.191751
3185	C	0.766288	0.65492	0.148856
3186	C	0.746116	0.666503	0.196407
3187	H	0.780698	0.6742	0.133889
3188	H	0.749838	0.648427	0.118577
3189	H	0.782276	0.696848	0.221929
3190	H	0.757035	0.685402	0.272291
3191	C	0.727087	0.636839	0.214114
3192	C	0.748498	0.608476	0.229659
3193	H	0.710719	0.630844	0.183311
3194	H	0.712614	0.641681	0.247595
3195	C	0.771123	0.59842	0.185653
3196	H	0.758058	0.586626	0.155785
3197	H	0.787652	0.580447	0.199737
3198	C	0.771447	0.621369	0.273162
3199	H	0.75773	0.628595	0.306514
3200	H	0.786444	0.601912	0.285005
3201	C	0.57902	0.854415	0.248918
3202	C	0.59337	0.83454	0.212586
3203	C	0.576395	0.81186	0.184068
3204	C	0.543086	0.813335	0.190669
3205	C	0.528505	0.834334	0.225151
3206	C	0.546274	0.853772	0.258766
3207	H	0.52846	0.798689	0.171003
3208	H	0.616926	0.836884	0.207371
3209	H	0.593257	0.868824	0.269467
3210	H	0.504533	0.832853	0.228732
3211	C	0.65635	0.887023	0.080062
3212	C	0.642796	0.907444	0.04327
3213	C	0.660939	0.929152	0.014508
3214	C	0.694133	0.926133	0.021888
3215	C	0.707671	0.904701	0.056601
3216	C	0.689126	0.886071	0.090174
3217	H	0.709719	0.939916	0.002613
3218	H	0.619041	0.906693	0.038231
3219	H	0.641721	0.873047	0.100582
3220	H	0.731688	0.905216	0.060147
3221	C	0.632737	0.828609	0.000677
3222	C	0.65144	0.843231	0.296139
3223	C	0.672855	0.8263	0.264952
3224	C	0.672021	0.793035	0.27276
3225	C	0.651806	0.778226	0.974917
3226	C	0.632843	0.795629	0.00962
3227	H	0.686477	0.778481	0.252702
3228	H	0.649523	0.867035	0.292355
3229	H	0.619979	0.842973	0.023503
3230	H	0.653502	0.754254	0.978256
3231	C	0.604374	0.909301	0.166697
3232	C	0.584868	0.894436	0.130414
3233	C	0.563989	0.911459	0.09867
3234	C	0.567009	0.944684	0.102531
3235	C	0.589027	0.959653	0.13475
3236	C	0.606503	0.942435	0.171589
3237	H	0.552278	0.958883	0.082811
3238	H	0.585764	0.870582	0.128438
3239	H	0.616253	0.895268	0.190957
3240	H	0.588914	0.98377	0.13554
3241	C	0.836482	0.60075	0.115125
3242	C	0.847692	0.577626	0.080594
3243	C	0.827794	0.562094	0.045198
3244	C	0.796659	0.574705	0.043323
3245	C	0.786213	0.59967	0.074482
3246	C	0.805128	0.612002	0.114495
3247	H	0.780301	0.566045	0.018904
3248	H	0.870903	0.572151	0.081803
3249	H	0.851978	0.61082	0.139506
3250	H	0.762865	0.605563	0.07194
3251	C	0.912257	0.635854	0.277553
3252	C	0.897416	0.654908	0.239989
3253	C	0.907073	0.686132	0.229164
3254	C	0.927654	0.698916	0.266535
3255	C	0.942855	0.679956	0.303012
3256	C	0.937269	0.646851	0.308118
3257	H	0.933191	0.722309	0.267176
3258	H	0.879722	0.645499	0.21911
3259	H	0.905081	0.613283	0.282793
3260	H	0.958727	0.691591	0.325267
3261	C	0.888642	0.578878	0.199632
3262	C	0.911317	0.591841	0.165903
3263	C	0.928325	0.57307	0.130999
3264	C	0.919386	0.54052	0.131171
3265	C	0.895497	0.528164	0.162884
3266	C	0.880684	0.54664	0.20111
3267	H	0.929802	0.524613	0.107553
3268	H	0.914963	0.615568	0.165947
3269	H	0.87609	0.59354	0.221949
3270	H	0.891203	0.504424	0.160912
3271	C	0.856281	0.655135	0.032208
3272	C	0.835632	0.642879	0.327527
3273	C	0.817314	0.662548	0.295083
3274	C	0.825849	0.694965	0.29835
3275	C	0.849209	0.70661	0.997969
3276	C	0.862087	0.687843	0.037686
3277	H	0.815029	0.711735	0.277066
3278	H	0.8332	0.619131	0.324932
3279	H	0.867125	0.639996	0.056411
3280	H	0.852834	0.730485	0.997377
3281	C	0.551454	0.690487	0.141903
3282	C	0.531361	0.663968	0.136874
3283	C	0.528517	0.648162	0.089822
3284	C	0.548819	0.659223	0.050089
3285	C	0.567434	0.686246	0.054429
3286	C	0.568079	0.704022	0.099684
3287	H	0.547968	0.650034	0.347521
3288	H	0.517909	0.65713	0.167301
3289	H	0.552848	0.700206	0.177334
3290	H	0.579707	0.692916	0.022826
3291	C	0.695759	0.544963	0.292959
3292	C	0.718545	0.568961	0.287065
3293	C	0.725776	0.581059	0.23846
3294	C	0.707683	0.568528	0.197158
3295	C	0.68703	0.543013	0.202391
3296	C	0.680631	0.530019	0.25062
3297	H	0.708784	0.57806	0.161465
3298	H	0.728304	0.578786	0.318899
3299	H	0.690079	0.539008	0.996157
3300	H	0.67561	0.535426	0.170427
3301	C	0.791716	0.799514	0.213101
3302	C	0.816116	0.777297	0.206906
3303	C	0.828607	0.770554	0.158224
3304	C	0.815778	0.788193	0.116897
3305	C	0.790055	0.808616	0.122594
3306	C	0.776804	0.814651	0.17096
3307	H	0.824944	0.786527	0.081001
3308	H	0.825268	0.767052	0.23885
3309	H	0.785008	0.804339	0.249635
3310	H	0.781969	0.81953	0.090515
3311	C	0.944204	0.939845	0.051374
3312	C	0.919798	0.962144	0.044601
3313	C	0.90678	0.967579	0.329302
3314	C	0.918141	0.947822	0.289285
3315	C	0.943588	0.927331	0.295238
3316	C	0.958259	0.923363	0.009624
3317	H	0.908375	0.94824	0.253694
3318	H	0.911012	0.97359	0.07574
3319	H	0.951648	0.936092	0.087844
3320	H	0.95048	0.915102	0.263714
3321	C	0.703382	0.737243	0.135023
3322	C	0.726931	0.715045	0.146528
3323	C	0.723396	0.693817	0.187599
3324	C	0.69811	0.700554	0.221707
3325	C	0.673207	0.720643	0.207756
3326	C	0.674003	0.737848	0.161649
3327	H	0.695707	0.688973	0.255522
3328	H	0.746003	0.713921	0.122834
3329	H	0.707425	0.75066	0.10346
3330	H	0.653486	0.720828	0.230216
3331	C	0.553188	0.532184	0.272146
3332	C	0.525393	0.548446	0.285267
3333	C	0.513297	0.54737	0.002068
3334	C	0.52993	0.527444	0.036922
3335	C	0.558084	0.51212	0.023753
3336	C	0.57018	0.512992	0.307471
3337	H	0.525185	0.527718	0.074974
3338	H	0.515991	0.56337	0.258756
3339	H	0.561711	0.536043	0.236264
3340	H	0.571489	0.503115	0.05223
3341	C	0.986804	0.787068	0.055034
3342	C	0.963999	0.764431	0.067654
3343	C	0.942385	0.769802	0.10765
3344	C	0.949212	0.795865	0.140096
3345	C	0.970109	0.819738	0.125061
3346	C	0.987515	0.817153	0.079356
3347	H	0.937187	0.799554	0.17322
3348	H	0.962716	0.744757	0.045354
3349	H	0.000358	0.781882	0.357389
3350	H	0.970561	0.84005	0.146107
3351	C	0.750752	0.951156	0.219426
3352	C	0.773415	0.97385	0.232847
3353	C	0.795098	0.968207	0.272672
3354	C	0.787966	0.941919	0.304574
3355	C	0.76703	0.918134	0.28906
3356	C	0.749592	0.920946	0.243436
3357	H	0.799559	0.937943	0.00459
3358	H	0.774592	0.993857	0.211264
3359	H	0.737063	0.956671	0.188752
3360	H	0.766381	0.897765	0.309949
3361	C	0.593517	0.788288	0.482461
3362	C	0.572257	0.75902	0.469998
3363	C	0.602817	0.803701	0.430191
3364	C	0.62014	0.780504	0.392313
3365	H	0.618098	0.823744	0.438533
3366	H	0.581756	0.812723	0.411245
3367	C	0.59781	0.750979	0.384441
3368	C	0.588937	0.73333	0.436367
3369	H	0.57626	0.758458	0.364787
3370	H	0.609977	0.734653	0.358989
3371	H	0.550905	0.766232	0.449554
3372	H	0.564833	0.749535	0.506702
3373	C	0.620539	0.722541	0.46184
3374	C	0.643361	0.750917	0.472736
3375	H	0.632373	0.705341	0.437092
3376	H	0.615147	0.710303	0.497568
3377	C	0.649918	0.768247	0.421153
3378	H	0.661874	0.751288	0.396434
3379	H	0.666116	0.788056	0.427794
3380	C	0.624684	0.774538	0.507709
3381	H	0.618448	0.763283	0.543837
3382	H	0.640965	0.793417	0.516538
3383	C	0.645596	0.952706	0.310409
3384	C	0.669774	0.97864	0.627133
3385	C	0.634859	0.935712	0.593579
3386	C	0.619873	0.95854	0.552575
3387	H	0.617749	0.917654	0.604314
3388	H	0.654925	0.923786	0.576149
3389	C	0.644951	0.985254	0.540703
3390	C	0.656062	0.50411	0.59014
3391	H	0.665438	0.97463	0.521879
3392	H	0.634514	0.001801	0.51356
3393	H	0.689953	0.968035	0.607463
3394	H	0.678585	0.989112	0.329002
3395	C	0.625924	0.51984	0.613131
3396	C	0.599979	0.494932	0.626493
3397	H	0.617104	0.537134	0.585558
3398	H	0.631728	0.53298	0.647876
3399	C	0.590905	0.974136	0.579504
3400	H	0.578616	0.988607	0.551801
3401	H	0.573921	0.955929	0.591211
3402	C	0.615837	0.971128	0.332615
3403	H	0.623096	0.983834	0.367002
3404	H	0.597874	0.95416	0.344165
3405	C	0.695799	0.843288	0.561632
3406	C	0.723703	0.821109	0.545594
3407	C	0.680164	0.854623	0.510229
3408	C	0.703507	0.871785	0.472164
3409	H	0.661274	0.870639	0.520037
3410	H	0.669738	0.83459	0.490298
3411	C	0.731586	0.848373	0.461242
3412	C	0.749386	0.837397	0.511456
3413	H	0.722517	0.827796	0.440599
3414	H	0.748517	0.860055	0.436142
3415	H	0.71475	0.800745	0.524296
3416	H	0.733947	0.812108	0.580869
3417	C	0.762203	0.867827	0.538542
3418	C	0.73509	0.891546	0.55278
3419	H	0.7794	0.879521	0.513641
3420	H	0.774934	0.861099	0.573157
3421	C	0.717302	0.900277	0.502513
3422	H	0.734398	0.912331	0.478179
3423	H	0.698224	0.916986	0.511006
3424	C	0.711373	0.873153	0.588001
3425	H	0.723127	0.865454	0.62299
3426	H	0.693429	0.889972	0.599339
3427	C	0.540156	0.894963	0.396995
3428	C	0.51182	0.917104	0.382764
3429	C	0.555501	0.884743	0.34515
3430	C	0.531907	0.867453	0.641018
3431	H	0.574922	0.868968	0.354111
3432	H	0.56539	0.905459	0.326002
3433	C	0.503387	0.89041	0.631323
3434	C	0.985955	0.90087	0.349011
3435	H	0.511803	0.911237	0.610619
3436	H	0.486621	0.878283	0.606483
3437	H	0.52001	0.937756	0.361399
3438	H	0.502122	0.925632	0.418747
3439	C	0.973711	0.870249	0.375868
3440	C	0.001283	0.846714	0.388547
3441	H	0.956296	0.858566	0.351346
3442	H	0.961383	0.876808	0.410967
3443	C	0.518691	0.838545	0.337664
3444	H	0.501491	0.82648	0.646854
3445	H	0.538072	0.822012	0.345346
3446	C	0.525331	0.864757	0.42328
3447	H	0.514173	0.871971	0.459035
3448	H	0.543488	0.847777	0.433001
3449	C	0.84006	0.53734	0.340313
3450	C	0.81265	0.514445	0.656911
3451	C	0.852286	0.554707	0.624263
3452	C	0.86488	0.531652	0.581269
3453	H	0.871107	0.570771	0.636027
3454	H	0.833377	0.569166	0.608164
3455	C	0.83634	0.509025	0.567896
3456	C	0.822947	0.990133	0.615815
3457	H	0.817931	0.523781	0.551034
3458	H	0.843351	0.491999	0.538668
3459	H	0.793148	0.527359	0.639466
3460	H	0.803351	0.50238	0.357367
3461	C	0.851416	0.970511	0.636435
3462	C	0.88044	0.991069	0.651711
3463	H	0.856929	0.952888	0.607299
3464	H	0.845464	0.957472	0.670966
3465	C	0.892028	0.512531	0.607097
3466	H	0.90363	0.498408	0.578284
3467	H	0.910447	0.528606	0.621072
3468	C	0.867973	0.515114	0.360357
3469	H	0.85993	0.502233	0.394109
3470	H	0.888009	0.529485	0.372201
3471	C	0.89613	0.704705	0.515242
3472	C	0.923876	0.72656	0.49668
3473	C	0.886686	0.683956	0.466571
3474	C	0.875143	0.70414	0.41909
3475	H	0.868006	0.66746	0.47617
3476	H	0.907031	0.669712	0.455626
3477	C	0.904053	0.726064	0.405565
3478	C	0.914625	0.748049	0.451059
3479	H	0.923484	0.710575	0.394566
3480	H	0.898954	0.74105	0.372686
3481	H	0.944429	0.712059	0.486639
3482	H	0.931286	0.742472	0.526995
3483	C	0.884684	0.768236	0.464951
3484	C	0.85597	0.747893	0.482743
3485	H	0.878812	0.782704	0.431705
3486	H	0.889209	0.784639	0.496139
3487	C	0.846546	0.723833	0.440393
3488	H	0.835145	0.736567	0.409815
3489	H	0.828271	0.707862	0.454917
3490	C	0.867586	0.726964	0.528958
3491	H	0.87424	0.742097	0.561034
3492	H	0.848011	0.712226	0.541195
3493	C	0.951475	0.588446	0.426372
3494	C	0.968489	0.561931	0.39499
3495	C	0.933047	0.609178	0.386202
3496	C	0.955062	0.624296	0.67779
3497	H	0.920646	0.628013	0.405976
3498	H	0.915081	0.594665	0.367589
3499	C	0.973597	0.596267	0.650548
3500	C	0.493105	0.574422	0.355818
3501	H	0.956905	0.581555	0.629322
3502	H	0.989554	0.606699	0.622425
3503	H	0.951416	0.547824	0.373361
3504	H	0.979363	0.546345	0.422925
3505	C	0.51746	0.595766	0.384144
3506	C	0.502056	0.624849	0.410555
3507	H	0.535163	0.602059	0.355807
3508	H	0.530324	0.583006	0.413951
3509	C	0.980667	0.643715	0.373129
3510	H	0.994932	0.654665	0.676608
3511	H	0.969469	0.66273	0.395115
3512	C	0.978269	0.610277	0.451544
3513	H	0.991511	0.596463	0.479582
3514	H	0.967177	0.629604	0.472598
3515	C	0.793316	0.650055	0.588691
3516	C	0.769684	0.676834	0.571895
3517	C	0.81157	0.639105	0.539403
3518	C	0.78954	0.626702	0.494995
3519	H	0.827969	0.620553	0.550741
3520	H	0.825445	0.658831	0.525085
3521	C	0.766288	0.65492	0.48219
3522	C	0.746116	0.666503	0.529739
3523	H	0.780698	0.6742	0.467223
3524	H	0.749838	0.648427	0.45191
3525	H	0.782276	0.696848	0.555262
3526	H	0.757035	0.685402	0.605625
3527	C	0.727087	0.636839	0.547447
3528	C	0.748498	0.608476	0.562993
3529	H	0.710719	0.630844	0.516645
3530	H	0.712614	0.641681	0.58093
3531	C	0.771123	0.59842	0.518985
3532	H	0.758058	0.586626	0.489117
3533	H	0.787652	0.580447	0.533071
3534	C	0.771447	0.621369	0.606494
3535	H	0.75773	0.628595	0.639847
3536	H	0.786444	0.601912	0.618339
3537	C	0.57902	0.854415	0.582252
3538	C	0.59337	0.83454	0.545918
3539	C	0.576395	0.81186	0.517399
3540	C	0.543086	0.813335	0.524002
3541	C	0.528505	0.834334	0.558483
3542	C	0.546274	0.853772	0.592099
3543	H	0.52846	0.798689	0.504335
3544	H	0.616926	0.836884	0.540703
3545	H	0.593257	0.868824	0.6028
3546	H	0.504533	0.832853	0.562063
3547	C	0.65635	0.887023	0.413395
3548	C	0.642796	0.907444	0.376603
3549	C	0.660939	0.929152	0.347841
3550	C	0.694133	0.926133	0.355221
3551	C	0.707671	0.904701	0.389935
3552	C	0.689126	0.886071	0.423505
3553	H	0.709719	0.939916	0.335946
3554	H	0.619041	0.906693	0.371564
3555	H	0.641721	0.873047	0.433916
3556	H	0.731688	0.905216	0.39348
3557	C	0.632737	0.828609	0.33401
3558	C	0.65144	0.843231	0.62947
3559	C	0.672855	0.8263	0.598287
3560	C	0.672021	0.793035	0.606094
3561	C	0.651806	0.778226	0.308251
3562	C	0.632843	0.795629	0.342952
3563	H	0.686477	0.778481	0.586034
3564	H	0.649523	0.867035	0.625689
3565	H	0.619979	0.842973	0.356835
3566	H	0.653502	0.754254	0.31159
3567	C	0.604374	0.909301	0.500031
3568	C	0.584868	0.894436	0.463746
3569	C	0.563989	0.911459	0.432002
3570	C	0.567009	0.944684	0.435864
3571	C	0.589027	0.959653	0.468085
3572	C	0.606503	0.942435	0.504922
3573	H	0.552278	0.958883	0.416144
3574	H	0.585764	0.870582	0.461772
3575	H	0.616253	0.895268	0.524288
3576	H	0.588914	0.98377	0.468874
3577	C	0.836482	0.60075	0.44846
3578	C	0.847692	0.577626	0.413925
3579	C	0.827794	0.562094	0.378531
3580	C	0.796659	0.574705	0.376656
3581	C	0.786213	0.59967	0.407814
3582	C	0.805128	0.612002	0.447827
3583	H	0.780301	0.566045	0.352237
3584	H	0.870903	0.572151	0.415137
3585	H	0.851978	0.61082	0.472839
3586	H	0.762865	0.605563	0.405275
3587	C	0.912257	0.635854	0.610886
3588	C	0.897416	0.654908	0.57332
3589	C	0.907073	0.686132	0.562498
3590	C	0.927654	0.698916	0.599869
3591	C	0.942855	0.679956	0.636344
3592	C	0.937269	0.646851	0.641452
3593	H	0.933191	0.722309	0.600509
3594	H	0.879722	0.645499	0.552445
3595	H	0.905081	0.613283	0.616124
3596	H	0.958727	0.691591	0.658599
3597	C	0.888642	0.578878	0.532965
3598	C	0.911317	0.591841	0.499234
3599	C	0.928325	0.57307	0.464334
3600	C	0.919386	0.54052	0.464505
3601	C	0.895497	0.528164	0.496219
3602	C	0.880684	0.54664	0.534444
3603	H	0.929802	0.524613	0.440885
3604	H	0.914963	0.615568	0.49928
3605	H	0.87609	0.59354	0.555281
3606	H	0.891203	0.504424	0.494244
3607	C	0.856281	0.655135	0.365541
3608	C	0.835632	0.642879	0.66086
3609	C	0.817314	0.662548	0.628414
3610	C	0.825849	0.694965	0.631681
3611	C	0.849209	0.70661	0.331302
3612	C	0.862087	0.687843	0.371019
3613	H	0.815029	0.711735	0.610398
3614	H	0.8332	0.619131	0.658264
3615	H	0.867125	0.639996	0.389744
3616	H	0.852834	0.730485	0.33071
3617	C	0.551454	0.690487	0.475236
3618	C	0.531361	0.663968	0.470208
3619	C	0.528517	0.648162	0.423154
3620	C	0.548819	0.659223	0.383423
3621	C	0.567434	0.686246	0.387762
3622	C	0.568079	0.704022	0.433016
3623	H	0.547968	0.650034	0.680855
3624	H	0.517909	0.65713	0.500633
3625	H	0.552848	0.700206	0.510667
3626	H	0.579707	0.692916	0.356159
3627	C	0.695759	0.544963	0.626291
3628	C	0.718545	0.568961	0.620397
3629	C	0.725776	0.581059	0.571792
3630	C	0.707683	0.568528	0.53049
3631	C	0.68703	0.543013	0.535725
3632	C	0.680631	0.530019	0.583953
3633	H	0.708784	0.57806	0.494797
3634	H	0.728304	0.578786	0.652233
3635	H	0.690079	0.539008	0.32949
3636	H	0.67561	0.535426	0.503759
3637	C	0.791716	0.799514	0.546433
3638	C	0.816116	0.777297	0.540238
3639	C	0.828607	0.770554	0.491556
3640	C	0.815778	0.788193	0.450228
3641	C	0.790055	0.808616	0.455928
3642	C	0.776804	0.814651	0.504293
3643	H	0.824944	0.786527	0.414333
3644	H	0.825268	0.767052	0.572184
3645	H	0.785008	0.804339	0.582969
3646	H	0.781969	0.81953	0.423848
3647	C	0.944204	0.939845	0.384708
3648	C	0.919798	0.962144	0.377934
3649	C	0.90678	0.967579	0.662637
3650	C	0.918141	0.947822	0.62262
3651	C	0.943588	0.927331	0.628571
3652	C	0.958259	0.923363	0.342957
3653	H	0.908375	0.94824	0.587025
3654	H	0.911012	0.97359	0.409072
3655	H	0.951648	0.936092	0.421176
3656	H	0.95048	0.915102	0.597048
3657	C	0.703382	0.737243	0.468355
3658	C	0.726931	0.715045	0.479861
3659	C	0.723396	0.693817	0.520933
3660	C	0.69811	0.700554	0.555041
3661	C	0.673207	0.720643	0.541088
3662	C	0.674003	0.737848	0.494984
3663	H	0.695707	0.688973	0.588855
3664	H	0.746003	0.713921	0.456168
3665	H	0.707425	0.75066	0.436794
3666	H	0.653486	0.720828	0.56355
3667	C	0.553188	0.532184	0.605476
3668	C	0.525393	0.548446	0.618598
3669	C	0.513297	0.54737	0.335401
3670	C	0.52993	0.527444	0.370255
3671	C	0.558084	0.51212	0.357085
3672	C	0.57018	0.512992	0.640804
3673	H	0.525185	0.527718	0.408306
3674	H	0.515991	0.56337	0.592088
3675	H	0.561711	0.536043	0.569596
3676	H	0.571489	0.503115	0.385562
3677	C	0.986804	0.787068	0.388368
3678	C	0.963999	0.764431	0.400986
3679	C	0.942385	0.769802	0.440984
3680	C	0.949212	0.795865	0.473429
3681	C	0.970109	0.819738	0.458394
3682	C	0.987515	0.817153	0.41269
3683	H	0.937187	0.799554	0.506554
3684	H	0.962716	0.744757	0.378687
3685	H	0.000358	0.781882	0.690721
3686	H	0.970561	0.84005	0.479437
3687	C	0.750752	0.951156	0.552757
3688	C	0.773415	0.97385	0.56618
3689	C	0.795098	0.968207	0.606006
3690	C	0.787966	0.941919	0.637907
3691	C	0.76703	0.918134	0.622391
3692	C	0.749592	0.920946	0.576767
3693	H	0.799559	0.937943	0.337923
3694	H	0.774592	0.993857	0.544596
3695	H	0.737063	0.956671	0.522085
3696	H	0.766381	0.897765	0.643282
3697	C	0.593517	0.788288	0.815792
3698	C	0.572257	0.75902	0.80333
3699	C	0.602817	0.803701	0.763526
3700	C	0.62014	0.780504	0.725645
3701	H	0.618098	0.823744	0.771867
3702	H	0.581756	0.812723	0.744576
3703	C	0.59781	0.750979	0.717776
3704	C	0.588937	0.73333	0.769698
3705	H	0.57626	0.758458	0.69812
3706	H	0.609977	0.734653	0.692322
3707	H	0.550905	0.766232	0.782885
3708	H	0.564833	0.749535	0.840037
3709	C	0.620539	0.722541	0.795171
3710	C	0.643361	0.750917	0.806067
3711	H	0.632373	0.705341	0.770426
3712	H	0.615147	0.710303	0.830899
3713	C	0.649918	0.768247	0.754484
3714	H	0.661874	0.751288	0.729766
3715	H	0.666116	0.788056	0.761125
3716	C	0.624684	0.774538	0.84104
3717	H	0.618448	0.763283	0.877168
3718	H	0.640965	0.793417	0.849873
3719	C	0.645596	0.952706	0.643743
3720	C	0.669774	0.97864	0.960468
3721	C	0.634859	0.935712	0.926913
3722	C	0.619873	0.95854	0.885906
3723	H	0.617749	0.917654	0.937649
3724	H	0.654925	0.923786	0.90948
3725	C	0.644951	0.985254	0.874038
3726	C	0.656062	0.50411	0.923475
3727	H	0.665438	0.97463	0.85521
3728	H	0.634514	0.001801	0.846895
3729	H	0.689953	0.968035	0.940794
3730	H	0.678585	0.989112	0.662335
3731	C	0.625924	0.51984	0.946466
3732	C	0.599979	0.494932	0.959824
3733	H	0.617104	0.537134	0.918893
3734	H	0.631728	0.53298	0.981211
3735	C	0.590905	0.974136	0.912835
3736	H	0.578616	0.988607	0.885132
3737	H	0.573921	0.955929	0.924546
3738	C	0.615837	0.971128	0.665949
3739	H	0.623096	0.983834	0.700335
3740	H	0.597874	0.95416	0.677496
3741	C	0.695799	0.843288	0.894967
3742	C	0.723703	0.821109	0.878925
3743	C	0.680164	0.854623	0.84356
3744	C	0.703507	0.871785	0.805499
3745	H	0.661274	0.870639	0.853372
3746	H	0.669738	0.83459	0.82363
3747	C	0.731586	0.848373	0.794577
3748	C	0.749386	0.837397	0.844787
3749	H	0.722517	0.827796	0.773934
3750	H	0.748517	0.860055	0.769477
3751	H	0.71475	0.800745	0.857627
3752	H	0.733947	0.812108	0.9142
3753	C	0.762203	0.867827	0.871877
3754	C	0.73509	0.891546	0.886111
3755	H	0.7794	0.879521	0.846975
3756	H	0.774934	0.861099	0.906488
3757	C	0.717302	0.900277	0.835844
3758	H	0.734398	0.912331	0.811514
3759	H	0.698224	0.916986	0.844341
3760	C	0.711373	0.873153	0.921332
3761	H	0.723127	0.865454	0.956325
3762	H	0.693429	0.889972	0.932674
3763	C	0.540156	0.894963	0.730326
3764	C	0.51182	0.917104	0.716095
3765	C	0.555501	0.884743	0.678484
3766	C	0.531907	0.867453	0.974349
3767	H	0.574922	0.868968	0.687442
3768	H	0.56539	0.905459	0.659335
3769	C	0.503387	0.89041	0.964654
3770	C	0.985955	0.90087	0.682346
3771	H	0.511803	0.911237	0.943954
3772	H	0.486621	0.878283	0.939814
3773	H	0.52001	0.937756	0.694731
3774	H	0.502122	0.925632	0.752078
3775	C	0.973711	0.870249	0.709199
3776	C	0.001283	0.846714	0.721878
3777	H	0.956296	0.858566	0.684679
3778	H	0.961383	0.876808	0.744301
3779	C	0.518691	0.838545	0.670997
3780	H	0.501491	0.82648	0.980189
3781	H	0.538072	0.822012	0.678678
3782	C	0.525331	0.864757	0.756615
3783	H	0.514173	0.871971	0.792366
3784	H	0.543488	0.847777	0.766332
3785	C	0.84006	0.53734	0.673646
3786	C	0.81265	0.514445	0.990242
3787	C	0.852286	0.554707	0.957594
3788	C	0.86488	0.531652	0.9146
3789	H	0.871107	0.570771	0.969362
3790	H	0.833377	0.569166	0.941495
3791	C	0.83634	0.509025	0.901227
3792	C	0.822947	0.990133	0.949146
3793	H	0.817931	0.523781	0.884369
3794	H	0.843351	0.491999	0.871999
3795	H	0.793148	0.527359	0.972801
3796	H	0.803351	0.50238	0.690698
3797	C	0.851416	0.970511	0.96977
3798	C	0.88044	0.991069	0.985046
3799	H	0.856929	0.952888	0.940634
3800	H	0.845464	0.957472	0.004302
3801	C	0.892028	0.512531	0.940428
3802	H	0.90363	0.498408	0.911615
3803	H	0.910447	0.528606	0.954407
3804	C	0.867973	0.515114	0.693691
3805	H	0.85993	0.502233	0.72744
3806	H	0.888009	0.529485	0.705535
3807	C	0.89613	0.704705	0.848573
3808	C	0.923876	0.72656	0.830011
3809	C	0.886686	0.683956	0.799902
3810	C	0.875143	0.70414	0.752421
3811	H	0.868006	0.66746	0.809501
3812	H	0.907031	0.669712	0.788961
3813	C	0.904053	0.726064	0.738896
3814	C	0.914625	0.748049	0.784391
3815	H	0.923484	0.710575	0.727901
3816	H	0.898954	0.74105	0.706019
3817	H	0.944429	0.712059	0.81997
3818	H	0.931286	0.742472	0.860326
3819	C	0.884684	0.768236	0.798282
3820	C	0.85597	0.747893	0.816074
3821	H	0.878812	0.782704	0.765036
3822	H	0.889209	0.784639	0.829474
3823	C	0.846546	0.723833	0.773728
3824	H	0.835145	0.736567	0.74315
3825	H	0.828271	0.707862	0.788252
3826	C	0.867586	0.726964	0.862289
3827	H	0.87424	0.742097	0.894365
3828	H	0.848011	0.712226	0.874526
3829	C	0.951475	0.588446	0.759707
3830	C	0.968489	0.561931	0.728321
3831	C	0.933047	0.609178	0.719534
3832	C	0.955062	0.624296	0.011124
3833	H	0.920646	0.628013	0.739311
3834	H	0.915081	0.594665	0.700922
3835	C	0.973597	0.596267	0.983879
3836	C	0.493105	0.574422	0.68915
3837	H	0.956905	0.581555	0.962657
3838	H	0.989554	0.606699	0.95576
3839	H	0.951416	0.547824	0.706694
3840	H	0.979363	0.546345	0.75626
3841	C	0.51746	0.595766	0.717479
3842	C	0.502056	0.624849	0.743886
3843	H	0.535163	0.602059	0.689139
3844	H	0.530324	0.583006	0.747283
3845	C	0.980667	0.643715	0.706462
3846	H	0.994932	0.654665	0.009941
3847	H	0.969469	0.66273	0.72845
3848	C	0.978269	0.610277	0.784875
3849	H	0.991511	0.596463	0.812917
3850	H	0.967177	0.629604	0.805929
3851	C	0.793316	0.650055	0.922022
3852	C	0.769684	0.676834	0.90523
3853	C	0.81157	0.639105	0.872734
3854	C	0.78954	0.626702	0.82833
3855	H	0.827969	0.620553	0.884076
3856	H	0.825445	0.658831	0.858416
3857	C	0.766288	0.65492	0.815521
3858	C	0.746116	0.666503	0.863071
3859	H	0.780698	0.6742	0.800554
3860	H	0.749838	0.648427	0.785241
3861	H	0.782276	0.696848	0.888593
3862	H	0.757035	0.685402	0.938956
3863	C	0.727087	0.636839	0.880778
3864	C	0.748498	0.608476	0.896324
3865	H	0.710719	0.630844	0.849976
3866	H	0.712614	0.641681	0.914261
3867	C	0.771123	0.59842	0.852316
3868	H	0.758058	0.586626	0.822452
3869	H	0.787652	0.580447	0.866402
3870	C	0.771447	0.621369	0.939829
3871	H	0.75773	0.628595	0.973178
3872	H	0.786444	0.601912	0.95167
3873	C	0.57902	0.854415	0.915584
3874	C	0.59337	0.83454	0.879249
3875	C	0.576395	0.81186	0.850734
3876	C	0.543086	0.813335	0.857333
3877	C	0.528505	0.834334	0.891815
3878	C	0.546274	0.853772	0.92543
3879	H	0.52846	0.798689	0.83767
3880	H	0.616926	0.836884	0.874038
3881	H	0.593257	0.868824	0.936131
3882	H	0.504533	0.832853	0.895398
3883	C	0.65635	0.887023	0.746726
3884	C	0.642796	0.907444	0.709934
3885	C	0.660939	0.929152	0.681175
3886	C	0.694133	0.926133	0.688552
3887	C	0.707671	0.904701	0.723266
3888	C	0.689126	0.886071	0.75684
3889	H	0.709719	0.939916	0.669277
3890	H	0.619041	0.906693	0.704899
3891	H	0.641721	0.873047	0.767247
3892	H	0.731688	0.905216	0.726811
3893	C	0.632737	0.828609	0.667345
3894	C	0.65144	0.843231	0.962805
3895	C	0.672855	0.8263	0.931618
3896	C	0.672021	0.793035	0.939425
3897	C	0.651806	0.778226	0.641586
3898	C	0.632843	0.795629	0.676284
3899	H	0.686477	0.778481	0.919369
3900	H	0.649523	0.867035	0.95902
3901	H	0.619979	0.842973	0.690168
3902	H	0.653502	0.754254	0.644921
3903	C	0.604374	0.909301	0.833362
3904	C	0.584868	0.894436	0.797081
3905	C	0.563989	0.911459	0.765337
3906	C	0.567009	0.944684	0.769195
3907	C	0.589027	0.959653	0.801416
3908	C	0.606503	0.942435	0.838253
3909	H	0.552278	0.958883	0.749478
3910	H	0.585764	0.870582	0.795103
3911	H	0.616253	0.895268	0.857623
3912	H	0.588914	0.98377	0.802205
3913	C	0.836482	0.60075	0.781791
3914	C	0.847692	0.577626	0.74726
3915	C	0.827794	0.562094	0.711863
3916	C	0.796659	0.574705	0.709988
3917	C	0.786213	0.59967	0.741149
3918	C	0.805128	0.612002	0.781162
3919	H	0.780301	0.566045	0.685571
3920	H	0.870903	0.572151	0.748468
3921	H	0.851978	0.61082	0.80617
3922	H	0.762865	0.605563	0.738606
3923	C	0.912257	0.635854	0.944217
3924	C	0.897416	0.654908	0.906655
3925	C	0.907073	0.686132	0.895829
3926	C	0.927654	0.698916	0.9332
3927	C	0.942855	0.679956	0.969679
3928	C	0.937269	0.646851	0.974783
3929	H	0.933191	0.722309	0.93384
3930	H	0.879722	0.645499	0.885776
3931	H	0.905081	0.613283	0.949459
3932	H	0.958727	0.691591	0.991934
3933	C	0.888642	0.578878	0.866299
3934	C	0.911317	0.591841	0.832569
3935	C	0.928325	0.57307	0.797665
3936	C	0.919386	0.54052	0.797836
3937	C	0.895497	0.528164	0.82955
3938	C	0.880684	0.54664	0.867775
3939	H	0.929802	0.524613	0.77422
3940	H	0.914963	0.615568	0.832611
3941	H	0.87609	0.59354	0.888616
3942	H	0.891203	0.504424	0.827579
3943	C	0.856281	0.655135	0.698875
3944	C	0.835632	0.642879	0.994191
3945	C	0.817314	0.662548	0.961749
3946	C	0.825849	0.694965	0.965016
3947	C	0.849209	0.70661	0.664634
3948	C	0.862087	0.687843	0.704353
3949	H	0.815029	0.711735	0.943733
3950	H	0.8332	0.619131	0.991599
3951	H	0.867125	0.639996	0.723075
3952	H	0.852834	0.730485	0.664043
3953	C	0.551454	0.690487	0.808568
3954	C	0.531361	0.663968	0.803539
3955	C	0.528517	0.648162	0.756489
3956	C	0.548819	0.659223	0.716754
3957	C	0.567434	0.686246	0.721093
3958	C	0.568079	0.704022	0.766351
3959	H	0.547968	0.650034	0.014188
3960	H	0.517909	0.65713	0.833964
3961	H	0.552848	0.700206	0.844002
3962	H	0.579707	0.692916	0.689493
3963	C	0.695759	0.544963	0.959626
3964	C	0.718545	0.568961	0.953728
3965	C	0.725776	0.581059	0.905127
3966	C	0.707683	0.568528	0.863822
3967	C	0.68703	0.543013	0.869056
3968	C	0.680631	0.530019	0.917288
3969	H	0.708784	0.57806	0.828132
3970	H	0.728304	0.578786	0.985564
3971	H	0.690079	0.539008	0.662823
3972	H	0.67561	0.535426	0.837094
3973	C	0.791716	0.799514	0.879768
3974	C	0.816116	0.777297	0.873573
3975	C	0.828607	0.770554	0.824891
3976	C	0.815778	0.788193	0.783563
3977	C	0.790055	0.808616	0.789259
3978	C	0.776804	0.814651	0.837624
3979	H	0.824944	0.786527	0.747668
3980	H	0.825268	0.767052	0.905516
3981	H	0.785008	0.804339	0.9163
3982	H	0.781969	0.81953	0.757179
3983	C	0.944204	0.939845	0.718039
3984	C	0.919798	0.962144	0.711265
3985	C	0.90678	0.967579	0.99597
3986	C	0.918141	0.947822	0.955951
3987	C	0.943588	0.927331	0.961906
3988	C	0.958259	0.923363	0.676288
3989	H	0.908375	0.94824	0.92036
3990	H	0.911012	0.97359	0.742407
3991	H	0.951648	0.936092	0.754511
3992	H	0.95048	0.915102	0.930379
3993	C	0.703382	0.737243	0.801686
3994	C	0.726931	0.715045	0.813196
3995	C	0.723396	0.693817	0.854264
3996	C	0.69811	0.700554	0.888372
3997	C	0.673207	0.720643	0.874423
3998	C	0.674003	0.737848	0.828315
3999	H	0.695707	0.688973	0.922186
4000	H	0.746003	0.713921	0.789499
4001	H	0.707425	0.75066	0.770125
4002	H	0.653486	0.720828	0.896881
4003	C	0.553188	0.532184	0.938811
4004	C	0.525393	0.548446	0.951933
4005	C	0.513297	0.54737	0.668732
4006	C	0.52993	0.527444	0.703587
4007	C	0.558084	0.51212	0.69042
4008	C	0.57018	0.512992	0.974135
4009	H	0.525185	0.527718	0.741641
4010	H	0.515991	0.56337	0.925423
4011	H	0.561711	0.536043	0.902931
4012	H	0.571489	0.503115	0.718897
4013	C	0.986804	0.787068	0.721699
4014	C	0.963999	0.764431	0.734321
4015	C	0.942385	0.769802	0.774315
4016	C	0.949212	0.795865	0.806761
4017	C	0.970109	0.819738	0.791725
4018	C	0.987515	0.817153	0.746021
4019	H	0.937187	0.799554	0.839885
4020	H	0.962716	0.744757	0.71202
4021	H	0.000358	0.781882	0.024056
4022	H	0.970561	0.84005	0.812772
4023	C	0.750752	0.951156	0.886092
4024	C	0.773415	0.97385	0.899511
4025	C	0.795098	0.968207	0.939337
4026	C	0.787966	0.941919	0.971238
4027	C	0.76703	0.918134	0.955726
4028	C	0.749592	0.920946	0.910102
4029	H	0.799559	0.937943	0.671256
4030	H	0.774592	0.993857	0.87793
4031	H	0.737063	0.956671	0.855419
4032	H	0.766381	0.897765	0.976613
