data_C1152H576_2018-02-15_12:33:40
#******************************************
#
# CIF file created by Zeo++
# Zeo++ is an open source package to
# analyze microporous materials
#
#*******************************************

_cell_length_a		33.6454   
_cell_length_b		25.103   
_cell_length_c		40.2012   
_cell_angle_alpha		90   
_cell_angle_beta		90   
_cell_angle_gamma		90   

_symmetry_space_group_name_H-M		'P1'
_symmetry_Int_Tables_number		1
_symmetry_cell_setting		Orthorhombic

loop_
_symmetry_equiv_pos_as_xyz
'+x,+y,+z'

loop_
_atom_site_label
_atom_site_type_symbol
_atom_site_fract_x
_atom_site_fract_y
_atom_site_fract_z
1	C	0.029838	0.123191	0.069701
2	C	0.003469	0.104751	0.094037
3	C	0.012051	0.05827	0.112749
4	C	0.044757	0.026322	0.101819
5	C	0.069947	0.040085	0.074008
6	C	0.062597	0.091543	0.060866
7	H	0.051463	0.994133	0.116195
8	H	0.082451	0.10917	0.045266
9	H	0.31508	0.130404	0.102156
10	C	0.144813	0.134906	0.31964
11	C	0.171311	0.153368	0.343873
12	C	0.162808	0.19986	0.362601
13	C	0.13014	0.231898	0.351701
14	C	0.10486	0.218125	0.323953
15	C	0.112063	0.166602	0.310854
16	H	0.123473	0.264076	0.366096
17	H	0.092093	0.148988	0.295342
18	H	0.193037	0.127692	0.35196
19	C	0.311478	0.123308	0.188527
20	C	0.338703	0.104414	0.164977
21	C	0.330221	0.058071	0.146047
22	C	0.297307	0.026213	0.156689
23	C	0.271682	0.040122	0.184183
24	C	0.278568	0.091803	0.197089
25	H	0.290727	0.994038	0.142261
26	H	0.25827	0.109585	0.212242
27	H	0.027102	0.130118	0.156962
28	C	0.196613	0.134775	0.438408
29	C	0.16945	0.153655	0.414809
30	C	0.177975	0.200003	0.395897
31	C	0.21086	0.231865	0.406595
32	C	0.236415	0.217971	0.434139
33	C	0.229498	0.166286	0.447024
34	H	0.217478	0.264021	0.39216
35	H	0.249749	0.14849	0.462213
36	H	0.147728	0.127954	0.406769
37	C	0.311419	0.384756	0.438263
38	C	0.338795	0.403968	0.414928
39	C	0.330289	0.450429	0.396093
40	C	0.29719	0.481995	0.406638
41	C	0.27158	0.467957	0.434104
42	C	0.278476	0.41619	0.44686
43	H	0.290564	0.514158	0.392213
44	H	0.258171	0.398276	0.461939
45	H	0.027285	0.378388	0.406929
46	C	0.196653	0.373408	0.188154
47	C	0.169489	0.354204	0.164645
48	C	0.177996	0.307694	0.145885
49	C	0.211102	0.276202	0.156488
50	C	0.236616	0.290249	0.18402
51	C	0.229579	0.34197	0.196813
52	H	0.217754	0.24399	0.142114
53	H	0.249757	0.359875	0.212004
54	H	0.147654	0.379815	0.156692
55	C	0.02984	0.384902	0.319948
56	C	0.003273	0.403661	0.344045
57	C	0.012079	0.45005	0.362781
58	C	0.0449	0.481808	0.351875
59	C	0.070081	0.467901	0.324093
60	C	0.06267	0.416393	0.311053
61	H	0.051686	0.513971	0.366248
62	H	0.082498	0.398626	0.295499
63	H	0.314935	0.377968	0.352196
64	C	0.144791	0.373155	0.069823
65	C	0.171514	0.354364	0.09378
66	C	0.16286	0.307957	0.112585
67	C	0.129951	0.276272	0.101747
68	C	0.104642	0.290171	0.074047
69	C	0.111888	0.341743	0.061069
70	H	0.123246	0.244059	0.1161
71	H	0.09195	0.359513	0.045604
72	H	0.193311	0.379912	0.101877
73	C	0.144036	0.427607	0.061603
74	C	0.166644	0.445776	0.034439
75	C	0.159227	0.995141	0.018327
76	C	0.126075	0.023728	0.03198
77	C	0.102847	0.009382	0.060709
78	C	0.11299	0.45942	0.074355
79	H	0.116434	0.054922	0.01859
80	H	0.096471	0.443689	0.093233
81	H	0.186684	0.419413	0.025026
82	C	0.030649	0.330441	0.311725
83	C	0.008115	0.312423	0.284482
84	C	0.015607	0.263128	0.268303
85	C	0.048827	0.234598	0.28189
86	C	0.071965	0.248857	0.31069
87	C	0.061729	0.2987	0.324456
88	H	0.058668	0.203651	0.268355
89	H	0.078181	0.314378	0.343393
90	H	0.321346	0.338762	0.275139
91	C	0.197408	0.427914	0.19624
92	C	0.174519	0.44617	0.223216
93	C	0.182118	0.995344	0.239515
94	C	0.215475	0.02378	0.226075
95	C	0.238755	0.009414	0.197379
96	C	0.228649	0.459511	0.183667
97	H	0.225395	0.054622	0.239696
98	H	0.245248	0.443756	0.164842
99	H	0.154283	0.419918	0.232433
100	C	0.310625	0.330241	0.446301
101	C	0.333585	0.31186	0.47321
102	C	0.326018	0.262637	0.489461
103	C	0.292676	0.234209	0.475999
104	C	0.269368	0.248628	0.447333
105	C	0.279391	0.29863	0.433724
106	H	0.282835	0.203274	0.489568
107	H	0.262743	0.31445	0.414951
108	H	0.020469	0.338104	0.482469
109	C	0.197492	0.080284	0.446512
110	C	0.174637	0.061926	0.473484
111	C	0.182097	0.512561	0.4896
112	C	0.215303	0.484026	0.475989
113	C	0.238624	0.498559	0.44735
114	C	0.228641	0.048637	0.433826
115	H	0.224981	0.452815	0.489381
116	H	0.245249	0.064474	0.415033
117	H	0.154581	0.088265	0.482892
118	C	0.310586	0.177806	0.196617
119	C	0.333484	0.196245	0.223547
120	C	0.326095	0.245703	0.239567
121	C	0.292945	0.274272	0.225894
122	C	0.26956	0.259655	0.197306
123	C	0.279473	0.209473	0.183883
124	H	0.283421	0.305686	0.239153
125	H	0.262831	0.193574	0.165134
126	H	0.020123	0.169856	0.233037
127	C	0.143953	0.0805	0.311334
128	C	0.16656	0.062289	0.284188
129	C	0.159258	0.512756	0.268246
130	C	0.126276	0.484026	0.282076
131	C	0.102962	0.498567	0.310725
132	C	0.112967	0.048706	0.324197
133	H	0.116942	0.452401	0.26896
134	H	0.096434	0.064527	0.343037
135	H	0.186341	0.088817	0.274559
136	C	0.030713	0.177603	0.061428
137	C	0.008221	0.195718	0.034179
138	C	0.015538	0.245217	0.018196
139	C	0.048544	0.273922	0.031995
140	C	0.071762	0.259484	0.060711
141	C	0.06168	0.209438	0.074268
142	H	0.058036	0.305369	0.018772
143	H	0.078114	0.193732	0.093207
144	H	0.321699	0.169249	0.024598
145	C	0.029838	0.123191	0.5697
146	C	0.003469	0.104751	0.594035
147	C	0.012051	0.05827	0.612748
148	C	0.044757	0.026322	0.601818
149	C	0.069947	0.040085	0.574008
150	C	0.062597	0.091543	0.560864
151	H	0.051463	0.994133	0.616194
152	H	0.082451	0.10917	0.545265
153	H	0.31508	0.130404	0.602154
154	C	0.144813	0.134906	0.819641
155	C	0.171311	0.153368	0.843874
156	C	0.162808	0.19986	0.862602
157	C	0.13014	0.231898	0.851702
158	C	0.10486	0.218125	0.823951
159	C	0.112063	0.166602	0.810855
160	H	0.123473	0.264076	0.866094
161	H	0.092093	0.148988	0.795343
162	H	0.193037	0.127692	0.85196
163	C	0.311478	0.123308	0.688527
164	C	0.338703	0.104414	0.664976
165	C	0.330221	0.058071	0.646046
166	C	0.297307	0.026213	0.656688
167	C	0.271682	0.040122	0.684182
168	C	0.278568	0.091803	0.697089
169	H	0.290727	0.994038	0.64226
170	H	0.25827	0.109585	0.712243
171	H	0.027102	0.130118	0.656961
172	C	0.196613	0.134775	0.938406
173	C	0.16945	0.153655	0.914807
174	C	0.177975	0.200003	0.895897
175	C	0.21086	0.231865	0.906596
176	C	0.236415	0.217971	0.934137
177	C	0.229498	0.166286	0.947025
178	H	0.217478	0.264021	0.892161
179	H	0.249749	0.14849	0.962214
180	H	0.147728	0.127954	0.90677
181	C	0.311419	0.384756	0.938261
182	C	0.338795	0.403968	0.914929
183	C	0.330289	0.450429	0.896094
184	C	0.29719	0.481995	0.906636
185	C	0.27158	0.467957	0.934105
186	C	0.278476	0.41619	0.946858
187	H	0.290564	0.514158	0.892211
188	H	0.258171	0.398276	0.96194
189	H	0.027285	0.378388	0.906927
190	C	0.196653	0.373408	0.688154
191	C	0.169489	0.354204	0.664645
192	C	0.177996	0.307694	0.645884
193	C	0.211102	0.276202	0.656489
194	C	0.236616	0.290249	0.68402
195	C	0.229579	0.34197	0.696813
196	H	0.217754	0.24399	0.642113
197	H	0.249757	0.359875	0.712004
198	H	0.147654	0.379815	0.656692
199	C	0.02984	0.384902	0.819946
200	C	0.003273	0.403661	0.844045
201	C	0.012079	0.45005	0.862781
202	C	0.0449	0.481808	0.851876
203	C	0.070081	0.467901	0.824093
204	C	0.06267	0.416393	0.811054
205	H	0.051686	0.513971	0.866246
206	H	0.082498	0.398626	0.795499
207	H	0.314935	0.377968	0.852197
208	C	0.144791	0.373155	0.569822
209	C	0.171514	0.354364	0.593779
210	C	0.16286	0.307957	0.612584
211	C	0.129951	0.276272	0.601746
212	C	0.104642	0.290171	0.574046
213	C	0.111888	0.341743	0.561068
214	H	0.123246	0.244059	0.616099
215	H	0.09195	0.359513	0.545604
216	H	0.193311	0.379912	0.601876
217	C	0.144036	0.427607	0.561603
218	C	0.166644	0.445776	0.534437
219	C	0.159227	0.995141	0.518326
220	C	0.126075	0.023728	0.53198
221	C	0.102847	0.009382	0.560708
222	C	0.11299	0.45942	0.574354
223	H	0.116434	0.054922	0.51859
224	H	0.096471	0.443689	0.593234
225	H	0.186684	0.419413	0.525025
226	C	0.030649	0.330441	0.811725
227	C	0.008115	0.312423	0.78448
228	C	0.015607	0.263128	0.768304
229	C	0.048827	0.234598	0.78189
230	C	0.071965	0.248857	0.810691
231	C	0.061729	0.2987	0.824454
232	H	0.058668	0.203651	0.768356
233	H	0.078181	0.314378	0.843391
234	H	0.321346	0.338762	0.775137
235	C	0.197408	0.427914	0.696239
236	C	0.174519	0.44617	0.723215
237	C	0.182118	0.995344	0.739513
238	C	0.215475	0.02378	0.726074
239	C	0.238755	0.009414	0.697378
240	C	0.228649	0.459511	0.683667
241	H	0.225395	0.054622	0.739695
242	H	0.245248	0.443756	0.664841
243	H	0.154283	0.419918	0.732432
244	C	0.310625	0.330241	0.946301
245	C	0.333585	0.31186	0.973208
246	C	0.326018	0.262637	0.989461
247	C	0.292676	0.234209	0.975999
248	C	0.269368	0.248628	0.947333
249	C	0.279391	0.29863	0.933724
250	H	0.282835	0.203274	0.989568
251	H	0.262743	0.31445	0.914951
252	H	0.020469	0.338104	0.982467
253	C	0.197492	0.080284	0.94651
254	C	0.174637	0.061926	0.973484
255	C	0.182097	0.512561	0.989601
256	C	0.215303	0.484026	0.975989
257	C	0.238624	0.498559	0.947348
258	C	0.228641	0.048637	0.933824
259	H	0.224981	0.452815	0.989382
260	H	0.245249	0.064474	0.915031
261	H	0.154581	0.088265	0.98289
262	C	0.310586	0.177806	0.696617
263	C	0.333484	0.196245	0.723546
264	C	0.326095	0.245703	0.739566
265	C	0.292945	0.274272	0.725894
266	C	0.26956	0.259655	0.697306
267	C	0.279473	0.209473	0.683883
268	H	0.283421	0.305686	0.739153
269	H	0.262831	0.193574	0.665133
270	H	0.020123	0.169856	0.733036
271	C	0.143953	0.0805	0.811335
272	C	0.16656	0.062289	0.784186
273	C	0.159258	0.512756	0.768246
274	C	0.126276	0.484026	0.782077
275	C	0.102962	0.498567	0.810723
276	C	0.112967	0.048706	0.824195
277	H	0.116942	0.452401	0.76896
278	H	0.096434	0.064527	0.843038
279	H	0.186341	0.088817	0.774557
280	C	0.030713	0.177603	0.561427
281	C	0.008221	0.195718	0.534179
282	C	0.015538	0.245217	0.518196
283	C	0.048544	0.273922	0.531995
284	C	0.071762	0.259484	0.56071
285	C	0.06168	0.209438	0.574267
286	H	0.058036	0.305369	0.518771
287	H	0.078114	0.193732	0.593207
288	H	0.321699	0.169249	0.524597
289	C	0.029838	0.623189	0.069701
290	C	0.003469	0.604749	0.094037
291	C	0.012051	0.558269	0.112749
292	C	0.044757	0.52632	0.101819
293	C	0.069947	0.540084	0.074008
294	C	0.062597	0.591544	0.060866
295	H	0.051463	0.494137	0.116195
296	H	0.082451	0.609167	0.045266
297	H	0.31508	0.630404	0.102156
298	C	0.144813	0.634905	0.31964
299	C	0.171311	0.653369	0.343873
300	C	0.162808	0.699857	0.362601
301	C	0.13014	0.731898	0.351701
302	C	0.10486	0.718122	0.323953
303	C	0.112063	0.666602	0.310854
304	H	0.123473	0.764073	0.366096
305	H	0.092093	0.648987	0.295342
306	H	0.193037	0.627691	0.35196
307	C	0.311478	0.623309	0.188527
308	C	0.338703	0.604415	0.164977
309	C	0.330221	0.558069	0.146047
310	C	0.297307	0.526213	0.156689
311	C	0.271682	0.540123	0.184183
312	C	0.278568	0.591803	0.197089
313	H	0.290727	0.494037	0.142261
314	H	0.25827	0.609585	0.212242
315	H	0.027102	0.630117	0.156962
316	C	0.196613	0.634774	0.438408
317	C	0.16945	0.653656	0.414809
318	C	0.177975	0.700001	0.395897
319	C	0.21086	0.731866	0.406595
320	C	0.236415	0.717971	0.434139
321	C	0.229498	0.666284	0.447024
322	H	0.217478	0.764021	0.39216
323	H	0.249749	0.648489	0.462213
324	H	0.147728	0.627954	0.406769
325	C	0.311419	0.884756	0.438263
326	C	0.338795	0.903969	0.414928
327	C	0.330289	0.950425	0.396093
328	C	0.29719	0.981991	0.406638
329	C	0.27158	0.967957	0.434104
330	C	0.278476	0.916186	0.44686
331	H	0.290564	0.014157	0.392213
332	H	0.258171	0.898276	0.461939
333	H	0.027285	0.878386	0.406929
334	C	0.196653	0.873407	0.188154
335	C	0.169489	0.854202	0.164645
336	C	0.177996	0.807693	0.145885
337	C	0.211102	0.776203	0.156488
338	C	0.236616	0.790249	0.18402
339	C	0.229579	0.841968	0.196813
340	H	0.217754	0.743992	0.142114
341	H	0.249757	0.859874	0.212004
342	H	0.147654	0.879816	0.156692
343	C	0.02984	0.884903	0.319948
344	C	0.003273	0.903662	0.344045
345	C	0.012079	0.950051	0.362781
346	C	0.0449	0.981808	0.351875
347	C	0.070081	0.967898	0.324093
348	C	0.06267	0.916394	0.311053
349	H	0.051686	0.01397	0.366248
350	H	0.082498	0.898627	0.295499
351	H	0.314935	0.877968	0.352196
352	C	0.144791	0.873156	0.069823
353	C	0.171514	0.854361	0.09378
354	C	0.16286	0.807956	0.112585
355	C	0.129951	0.776271	0.101747
356	C	0.104642	0.79017	0.074047
357	C	0.111888	0.841741	0.061069
358	H	0.123246	0.744059	0.1161
359	H	0.09195	0.859512	0.045604
360	H	0.193311	0.879912	0.101877
361	C	0.144036	0.927607	0.061603
362	C	0.166644	0.945777	0.034439
363	C	0.159227	0.495141	0.018327
364	C	0.126075	0.523727	0.03198
365	C	0.102847	0.509382	0.060709
366	C	0.11299	0.95942	0.074355
367	H	0.116434	0.554922	0.01859
368	H	0.096471	0.943689	0.093233
369	H	0.186684	0.919413	0.025026
370	C	0.030649	0.83044	0.311725
371	C	0.008115	0.812422	0.284482
372	C	0.015607	0.763129	0.268303
373	C	0.048827	0.734598	0.28189
374	C	0.071965	0.748856	0.31069
375	C	0.061729	0.798698	0.324456
376	H	0.058668	0.70365	0.268355
377	H	0.078181	0.814378	0.343393
378	H	0.321346	0.838761	0.275139
379	C	0.197408	0.92791	0.19624
380	C	0.174519	0.946171	0.223216
381	C	0.182118	0.495344	0.239515
382	C	0.215475	0.523779	0.226075
383	C	0.238755	0.509414	0.197379
384	C	0.228649	0.959512	0.183667
385	H	0.225395	0.55462	0.239696
386	H	0.245248	0.943757	0.164842
387	H	0.154283	0.919919	0.232433
388	C	0.310625	0.83024	0.446301
389	C	0.333585	0.81186	0.47321
390	C	0.326018	0.762635	0.489461
391	C	0.292676	0.734208	0.475999
392	C	0.269368	0.748629	0.447333
393	C	0.279391	0.798631	0.433724
394	H	0.282835	0.703275	0.489568
395	H	0.262743	0.81445	0.414951
396	H	0.020469	0.838104	0.482469
397	C	0.197492	0.580282	0.446512
398	C	0.174637	0.561926	0.473484
399	C	0.182097	0.012563	0.4896
400	C	0.215303	0.984023	0.475989
401	C	0.238624	0.998559	0.44735
402	C	0.228641	0.548636	0.433826
403	H	0.224981	0.952816	0.489381
404	H	0.245249	0.564475	0.415033
405	H	0.154581	0.588265	0.482892
406	C	0.310586	0.677804	0.196617
407	C	0.333484	0.696244	0.223547
408	C	0.326095	0.745705	0.239567
409	C	0.292945	0.774271	0.225894
410	C	0.26956	0.759655	0.197306
411	C	0.279473	0.709474	0.183883
412	H	0.283421	0.805686	0.239153
413	H	0.262831	0.693571	0.165134
414	H	0.020123	0.669857	0.233037
415	C	0.143953	0.580501	0.311334
416	C	0.16656	0.562288	0.284188
417	C	0.159258	0.012756	0.268246
418	C	0.126276	0.984027	0.282076
419	C	0.102962	0.998567	0.310725
420	C	0.112967	0.548704	0.324197
421	H	0.116942	0.952401	0.26896
422	H	0.096434	0.564527	0.343037
423	H	0.186341	0.588815	0.274559
424	C	0.030713	0.677601	0.061428
425	C	0.008221	0.695719	0.034179
426	C	0.015538	0.745219	0.018196
427	C	0.048544	0.77392	0.031995
428	C	0.071762	0.759484	0.060711
429	C	0.06168	0.709438	0.074268
430	H	0.058036	0.805367	0.018772
431	H	0.078114	0.693731	0.093207
432	H	0.321699	0.669248	0.024598
433	C	0.029838	0.623189	0.5697
434	C	0.003469	0.604749	0.594035
435	C	0.012051	0.558269	0.612748
436	C	0.044757	0.52632	0.601818
437	C	0.069947	0.540084	0.574008
438	C	0.062597	0.591544	0.560864
439	H	0.051463	0.494137	0.616194
440	H	0.082451	0.609167	0.545265
441	H	0.31508	0.630404	0.602154
442	C	0.144813	0.634905	0.819641
443	C	0.171311	0.653369	0.843874
444	C	0.162808	0.699857	0.862602
445	C	0.13014	0.731898	0.851702
446	C	0.10486	0.718122	0.823951
447	C	0.112063	0.666602	0.810855
448	H	0.123473	0.764073	0.866094
449	H	0.092093	0.648987	0.795343
450	H	0.193037	0.627691	0.85196
451	C	0.311478	0.623309	0.688527
452	C	0.338703	0.604415	0.664976
453	C	0.330221	0.558069	0.646046
454	C	0.297307	0.526213	0.656688
455	C	0.271682	0.540123	0.684182
456	C	0.278568	0.591803	0.697089
457	H	0.290727	0.494037	0.64226
458	H	0.25827	0.609585	0.712243
459	H	0.027102	0.630117	0.656961
460	C	0.196613	0.634774	0.938406
461	C	0.16945	0.653656	0.914807
462	C	0.177975	0.700001	0.895897
463	C	0.21086	0.731866	0.906596
464	C	0.236415	0.717971	0.934137
465	C	0.229498	0.666284	0.947025
466	H	0.217478	0.764021	0.892161
467	H	0.249749	0.648489	0.962214
468	H	0.147728	0.627954	0.90677
469	C	0.311419	0.884756	0.938261
470	C	0.338795	0.903969	0.914929
471	C	0.330289	0.950425	0.896094
472	C	0.29719	0.981991	0.906636
473	C	0.27158	0.967957	0.934105
474	C	0.278476	0.916186	0.946858
475	H	0.290564	0.014157	0.892211
476	H	0.258171	0.898276	0.96194
477	H	0.027285	0.878386	0.906927
478	C	0.196653	0.873407	0.688154
479	C	0.169489	0.854202	0.664645
480	C	0.177996	0.807693	0.645884
481	C	0.211102	0.776203	0.656489
482	C	0.236616	0.790249	0.68402
483	C	0.229579	0.841968	0.696813
484	H	0.217754	0.743992	0.642113
485	H	0.249757	0.859874	0.712004
486	H	0.147654	0.879816	0.656692
487	C	0.02984	0.884903	0.819946
488	C	0.003273	0.903662	0.844045
489	C	0.012079	0.950051	0.862781
490	C	0.0449	0.981808	0.851876
491	C	0.070081	0.967898	0.824093
492	C	0.06267	0.916394	0.811054
493	H	0.051686	0.01397	0.866246
494	H	0.082498	0.898627	0.795499
495	H	0.314935	0.877968	0.852197
496	C	0.144791	0.873156	0.569822
497	C	0.171514	0.854361	0.593779
498	C	0.16286	0.807956	0.612584
499	C	0.129951	0.776271	0.601746
500	C	0.104642	0.79017	0.574046
501	C	0.111888	0.841741	0.561068
502	H	0.123246	0.744059	0.616099
503	H	0.09195	0.859512	0.545604
504	H	0.193311	0.879912	0.601876
505	C	0.144036	0.927607	0.561603
506	C	0.166644	0.945777	0.534437
507	C	0.159227	0.495141	0.518326
508	C	0.126075	0.523727	0.53198
509	C	0.102847	0.509382	0.560708
510	C	0.11299	0.95942	0.574354
511	H	0.116434	0.554922	0.51859
512	H	0.096471	0.943689	0.593234
513	H	0.186684	0.919413	0.525025
514	C	0.030649	0.83044	0.811725
515	C	0.008115	0.812422	0.78448
516	C	0.015607	0.763129	0.768304
517	C	0.048827	0.734598	0.78189
518	C	0.071965	0.748856	0.810691
519	C	0.061729	0.798698	0.824454
520	H	0.058668	0.70365	0.768356
521	H	0.078181	0.814378	0.843391
522	H	0.321346	0.838761	0.775137
523	C	0.197408	0.92791	0.696239
524	C	0.174519	0.946171	0.723215
525	C	0.182118	0.495344	0.739513
526	C	0.215475	0.523779	0.726074
527	C	0.238755	0.509414	0.697378
528	C	0.228649	0.959512	0.683667
529	H	0.225395	0.55462	0.739695
530	H	0.245248	0.943757	0.664841
531	H	0.154283	0.919919	0.732432
532	C	0.310625	0.83024	0.946301
533	C	0.333585	0.81186	0.973208
534	C	0.326018	0.762635	0.989461
535	C	0.292676	0.734208	0.975999
536	C	0.269368	0.748629	0.947333
537	C	0.279391	0.798631	0.933724
538	H	0.282835	0.703275	0.989568
539	H	0.262743	0.81445	0.914951
540	H	0.020469	0.838104	0.982467
541	C	0.197492	0.580282	0.94651
542	C	0.174637	0.561926	0.973484
543	C	0.182097	0.012563	0.989601
544	C	0.215303	0.984023	0.975989
545	C	0.238624	0.998559	0.947348
546	C	0.228641	0.548636	0.933824
547	H	0.224981	0.952816	0.989382
548	H	0.245249	0.564475	0.915031
549	H	0.154581	0.588265	0.98289
550	C	0.310586	0.677804	0.696617
551	C	0.333484	0.696244	0.723546
552	C	0.326095	0.745705	0.739566
553	C	0.292945	0.774271	0.725894
554	C	0.26956	0.759655	0.697306
555	C	0.279473	0.709474	0.683883
556	H	0.283421	0.805686	0.739153
557	H	0.262831	0.693571	0.665133
558	H	0.020123	0.669857	0.733036
559	C	0.143953	0.580501	0.811335
560	C	0.16656	0.562288	0.784186
561	C	0.159258	0.012756	0.768246
562	C	0.126276	0.984027	0.782077
563	C	0.102962	0.998567	0.810723
564	C	0.112967	0.548704	0.824195
565	H	0.116942	0.952401	0.76896
566	H	0.096434	0.564527	0.843038
567	H	0.186341	0.588815	0.774557
568	C	0.030713	0.677601	0.561427
569	C	0.008221	0.695719	0.534179
570	C	0.015538	0.745219	0.518196
571	C	0.048544	0.77392	0.531995
572	C	0.071762	0.759484	0.56071
573	C	0.06168	0.709438	0.574267
574	H	0.058036	0.805367	0.518771
575	H	0.078114	0.693731	0.593207
576	H	0.321699	0.669248	0.524597
577	C	0.36317	0.123191	0.069701
578	C	0.336804	0.104751	0.094037
579	C	0.345385	0.05827	0.112749
580	C	0.378091	0.026322	0.101819
581	C	0.40328	0.040085	0.074008
582	C	0.39593	0.091543	0.060866
583	H	0.384796	0.994133	0.116195
584	H	0.415784	0.10917	0.045266
585	H	0.648413	0.130404	0.102156
586	C	0.478146	0.134906	0.31964
587	C	0.504643	0.153368	0.343873
588	C	0.496142	0.19986	0.362601
589	C	0.463472	0.231898	0.351701
590	C	0.438194	0.218125	0.323953
591	C	0.445395	0.166602	0.310854
592	H	0.456806	0.264076	0.366096
593	H	0.425425	0.148988	0.295342
594	H	0.526369	0.127692	0.35196
595	C	0.644811	0.123308	0.188527
596	C	0.672036	0.104414	0.164977
597	C	0.663553	0.058071	0.146047
598	C	0.630639	0.026213	0.156689
599	C	0.605016	0.040122	0.184183
600	C	0.6119	0.091803	0.197089
601	H	0.624059	0.994038	0.142261
602	H	0.591603	0.109585	0.212242
603	H	0.360436	0.130118	0.156962
604	C	0.529945	0.134775	0.438408
605	C	0.502782	0.153655	0.414809
606	C	0.511306	0.200003	0.395897
607	C	0.544194	0.231865	0.406595
608	C	0.569748	0.217971	0.434139
609	C	0.562832	0.166286	0.447024
610	H	0.55081	0.264021	0.39216
611	H	0.583082	0.14849	0.462213
612	H	0.481062	0.127954	0.406769
613	C	0.644751	0.384756	0.438263
614	C	0.672128	0.403968	0.414928
615	C	0.663622	0.450429	0.396093
616	C	0.630523	0.481995	0.406638
617	C	0.604912	0.467957	0.434104
618	C	0.611808	0.41619	0.44686
619	H	0.623895	0.514158	0.392213
620	H	0.591505	0.398276	0.461939
621	H	0.360617	0.378388	0.406929
622	C	0.529987	0.373408	0.188154
623	C	0.502824	0.354204	0.164645
624	C	0.51133	0.307694	0.145885
625	C	0.544434	0.276202	0.156488
626	C	0.56995	0.290249	0.18402
627	C	0.562912	0.34197	0.196813
628	H	0.551086	0.24399	0.142114
629	H	0.58309	0.359875	0.212004
630	H	0.480987	0.379815	0.156692
631	C	0.363173	0.384902	0.319948
632	C	0.336605	0.403661	0.344045
633	C	0.345411	0.45005	0.362781
634	C	0.378233	0.481808	0.351875
635	C	0.403413	0.467901	0.324093
636	C	0.396004	0.416393	0.311053
637	H	0.385019	0.513971	0.366248
638	H	0.415831	0.398626	0.295499
639	H	0.648267	0.377968	0.352196
640	C	0.478125	0.373155	0.069823
641	C	0.504848	0.354364	0.09378
642	C	0.496193	0.307957	0.112585
643	C	0.463285	0.276272	0.101747
644	C	0.437974	0.290171	0.074047
645	C	0.44522	0.341743	0.061069
646	H	0.45658	0.244059	0.1161
647	H	0.425283	0.359513	0.045604
648	H	0.526643	0.379912	0.101877
649	C	0.47737	0.427607	0.061603
650	C	0.499977	0.445776	0.034439
651	C	0.492561	0.995141	0.018327
652	C	0.459409	0.023728	0.03198
653	C	0.436179	0.009382	0.060709
654	C	0.446323	0.45942	0.074355
655	H	0.449768	0.054922	0.01859
656	H	0.429803	0.443689	0.093233
657	H	0.520018	0.419413	0.025026
658	C	0.363982	0.330441	0.311725
659	C	0.34145	0.312423	0.284482
660	C	0.348939	0.263128	0.268303
661	C	0.382159	0.234598	0.28189
662	C	0.405298	0.248857	0.31069
663	C	0.395062	0.2987	0.324456
664	H	0.392	0.203651	0.268355
665	H	0.411516	0.314378	0.343393
666	H	0.654678	0.338762	0.275139
667	C	0.530742	0.427914	0.19624
668	C	0.507853	0.44617	0.223216
669	C	0.515453	0.995344	0.239515
670	C	0.548809	0.02378	0.226075
671	C	0.572087	0.009414	0.197379
672	C	0.561982	0.459511	0.183667
673	H	0.558728	0.054622	0.239696
674	H	0.578582	0.443756	0.164842
675	H	0.487615	0.419918	0.232433
676	C	0.643958	0.330241	0.446301
677	C	0.666918	0.31186	0.47321
678	C	0.659354	0.262637	0.489461
679	C	0.626009	0.234209	0.475999
680	C	0.602701	0.248628	0.447333
681	C	0.612723	0.29863	0.433724
682	H	0.616168	0.203274	0.489568
683	H	0.596076	0.31445	0.414951
684	H	0.353802	0.338104	0.482469
685	C	0.530825	0.080284	0.446512
686	C	0.507972	0.061926	0.473484
687	C	0.515429	0.512561	0.4896
688	C	0.548637	0.484026	0.475989
689	C	0.571957	0.498559	0.44735
690	C	0.561973	0.048637	0.433826
691	H	0.558314	0.452815	0.489381
692	H	0.578582	0.064474	0.415033
693	H	0.487912	0.088265	0.482892
694	C	0.643922	0.177806	0.196617
695	C	0.666817	0.196245	0.223547
696	C	0.659428	0.245703	0.239567
697	C	0.626279	0.274272	0.225894
698	C	0.602894	0.259655	0.197306
699	C	0.612806	0.209473	0.183883
700	H	0.616753	0.305686	0.239153
701	H	0.596165	0.193574	0.165134
702	H	0.353457	0.169856	0.233037
703	C	0.477287	0.0805	0.311334
704	C	0.499893	0.062289	0.284188
705	C	0.492591	0.512756	0.268246
706	C	0.459608	0.484026	0.282076
707	C	0.436295	0.498567	0.310725
708	C	0.446299	0.048706	0.324197
709	H	0.450276	0.452401	0.26896
710	H	0.429768	0.064527	0.343037
711	H	0.519676	0.088817	0.274559
712	C	0.364047	0.177603	0.061428
713	C	0.341554	0.195718	0.034179
714	C	0.348871	0.245217	0.018196
715	C	0.381877	0.273922	0.031995
716	C	0.405096	0.259484	0.060711
717	C	0.395014	0.209438	0.074268
718	H	0.391367	0.305369	0.018772
719	H	0.411447	0.193732	0.093207
720	H	0.655032	0.169249	0.024598
721	C	0.36317	0.123191	0.5697
722	C	0.336804	0.104751	0.594035
723	C	0.345385	0.05827	0.612748
724	C	0.378091	0.026322	0.601818
725	C	0.40328	0.040085	0.574008
726	C	0.39593	0.091543	0.560864
727	H	0.384796	0.994133	0.616194
728	H	0.415784	0.10917	0.545265
729	H	0.648413	0.130404	0.602154
730	C	0.478146	0.134906	0.819641
731	C	0.504643	0.153368	0.843874
732	C	0.496142	0.19986	0.862602
733	C	0.463472	0.231898	0.851702
734	C	0.438194	0.218125	0.823951
735	C	0.445395	0.166602	0.810855
736	H	0.456806	0.264076	0.866094
737	H	0.425425	0.148988	0.795343
738	H	0.526369	0.127692	0.85196
739	C	0.644811	0.123308	0.688527
740	C	0.672036	0.104414	0.664976
741	C	0.663553	0.058071	0.646046
742	C	0.630639	0.026213	0.656688
743	C	0.605016	0.040122	0.684182
744	C	0.6119	0.091803	0.697089
745	H	0.624059	0.994038	0.64226
746	H	0.591603	0.109585	0.712243
747	H	0.360436	0.130118	0.656961
748	C	0.529945	0.134775	0.938406
749	C	0.502782	0.153655	0.914807
750	C	0.511306	0.200003	0.895897
751	C	0.544194	0.231865	0.906596
752	C	0.569748	0.217971	0.934137
753	C	0.562832	0.166286	0.947025
754	H	0.55081	0.264021	0.892161
755	H	0.583082	0.14849	0.962214
756	H	0.481062	0.127954	0.90677
757	C	0.644751	0.384756	0.938261
758	C	0.672128	0.403968	0.914929
759	C	0.663622	0.450429	0.896094
760	C	0.630523	0.481995	0.906636
761	C	0.604912	0.467957	0.934105
762	C	0.611808	0.41619	0.946858
763	H	0.623895	0.514158	0.892211
764	H	0.591505	0.398276	0.96194
765	H	0.360617	0.378388	0.906927
766	C	0.529987	0.373408	0.688154
767	C	0.502824	0.354204	0.664645
768	C	0.51133	0.307694	0.645884
769	C	0.544434	0.276202	0.656489
770	C	0.56995	0.290249	0.68402
771	C	0.562912	0.34197	0.696813
772	H	0.551086	0.24399	0.642113
773	H	0.58309	0.359875	0.712004
774	H	0.480987	0.379815	0.656692
775	C	0.363173	0.384902	0.819946
776	C	0.336605	0.403661	0.844045
777	C	0.345411	0.45005	0.862781
778	C	0.378233	0.481808	0.851876
779	C	0.403413	0.467901	0.824093
780	C	0.396004	0.416393	0.811054
781	H	0.385019	0.513971	0.866246
782	H	0.415831	0.398626	0.795499
783	H	0.648267	0.377968	0.852197
784	C	0.478125	0.373155	0.569822
785	C	0.504848	0.354364	0.593779
786	C	0.496193	0.307957	0.612584
787	C	0.463285	0.276272	0.601746
788	C	0.437974	0.290171	0.574046
789	C	0.44522	0.341743	0.561068
790	H	0.45658	0.244059	0.616099
791	H	0.425283	0.359513	0.545604
792	H	0.526643	0.379912	0.601876
793	C	0.47737	0.427607	0.561603
794	C	0.499977	0.445776	0.534437
795	C	0.492561	0.995141	0.518326
796	C	0.459409	0.023728	0.53198
797	C	0.436179	0.009382	0.560708
798	C	0.446323	0.45942	0.574354
799	H	0.449768	0.054922	0.51859
800	H	0.429803	0.443689	0.593234
801	H	0.520018	0.419413	0.525025
802	C	0.363982	0.330441	0.811725
803	C	0.34145	0.312423	0.78448
804	C	0.348939	0.263128	0.768304
805	C	0.382159	0.234598	0.78189
806	C	0.405298	0.248857	0.810691
807	C	0.395062	0.2987	0.824454
808	H	0.392	0.203651	0.768356
809	H	0.411516	0.314378	0.843391
810	H	0.654678	0.338762	0.775137
811	C	0.530742	0.427914	0.696239
812	C	0.507853	0.44617	0.723215
813	C	0.515453	0.995344	0.739513
814	C	0.548809	0.02378	0.726074
815	C	0.572087	0.009414	0.697378
816	C	0.561982	0.459511	0.683667
817	H	0.558728	0.054622	0.739695
818	H	0.578582	0.443756	0.664841
819	H	0.487615	0.419918	0.732432
820	C	0.643958	0.330241	0.946301
821	C	0.666918	0.31186	0.973208
822	C	0.659354	0.262637	0.989461
823	C	0.626009	0.234209	0.975999
824	C	0.602701	0.248628	0.947333
825	C	0.612723	0.29863	0.933724
826	H	0.616168	0.203274	0.989568
827	H	0.596076	0.31445	0.914951
828	H	0.353802	0.338104	0.982467
829	C	0.530825	0.080284	0.94651
830	C	0.507972	0.061926	0.973484
831	C	0.515429	0.512561	0.989601
832	C	0.548637	0.484026	0.975989
833	C	0.571957	0.498559	0.947348
834	C	0.561973	0.048637	0.933824
835	H	0.558314	0.452815	0.989382
836	H	0.578582	0.064474	0.915031
837	H	0.487912	0.088265	0.98289
838	C	0.643922	0.177806	0.696617
839	C	0.666817	0.196245	0.723546
840	C	0.659428	0.245703	0.739566
841	C	0.626279	0.274272	0.725894
842	C	0.602894	0.259655	0.697306
843	C	0.612806	0.209473	0.683883
844	H	0.616753	0.305686	0.739153
845	H	0.596165	0.193574	0.665133
846	H	0.353457	0.169856	0.733036
847	C	0.477287	0.0805	0.811335
848	C	0.499893	0.062289	0.784186
849	C	0.492591	0.512756	0.768246
850	C	0.459608	0.484026	0.782077
851	C	0.436295	0.498567	0.810723
852	C	0.446299	0.048706	0.824195
853	H	0.450276	0.452401	0.76896
854	H	0.429768	0.064527	0.843038
855	H	0.519676	0.088817	0.774557
856	C	0.364047	0.177603	0.561427
857	C	0.341554	0.195718	0.534179
858	C	0.348871	0.245217	0.518196
859	C	0.381877	0.273922	0.531995
860	C	0.405096	0.259484	0.56071
861	C	0.395014	0.209438	0.574267
862	H	0.391367	0.305369	0.518771
863	H	0.411447	0.193732	0.593207
864	H	0.655032	0.169249	0.524597
865	C	0.36317	0.623189	0.069701
866	C	0.336804	0.604749	0.094037
867	C	0.345385	0.558269	0.112749
868	C	0.378091	0.52632	0.101819
869	C	0.40328	0.540084	0.074008
870	C	0.39593	0.591544	0.060866
871	H	0.384796	0.494137	0.116195
872	H	0.415784	0.609167	0.045266
873	H	0.648413	0.630404	0.102156
874	C	0.478146	0.634905	0.31964
875	C	0.504643	0.653369	0.343873
876	C	0.496142	0.699857	0.362601
877	C	0.463472	0.731898	0.351701
878	C	0.438194	0.718122	0.323953
879	C	0.445395	0.666602	0.310854
880	H	0.456806	0.764073	0.366096
881	H	0.425425	0.648987	0.295342
882	H	0.526369	0.627691	0.35196
883	C	0.644811	0.623309	0.188527
884	C	0.672036	0.604415	0.164977
885	C	0.663553	0.558069	0.146047
886	C	0.630639	0.526213	0.156689
887	C	0.605016	0.540123	0.184183
888	C	0.6119	0.591803	0.197089
889	H	0.624059	0.494037	0.142261
890	H	0.591603	0.609585	0.212242
891	H	0.360436	0.630117	0.156962
892	C	0.529945	0.634774	0.438408
893	C	0.502782	0.653656	0.414809
894	C	0.511306	0.700001	0.395897
895	C	0.544194	0.731866	0.406595
896	C	0.569748	0.717971	0.434139
897	C	0.562832	0.666284	0.447024
898	H	0.55081	0.764021	0.39216
899	H	0.583082	0.648489	0.462213
900	H	0.481062	0.627954	0.406769
901	C	0.644751	0.884756	0.438263
902	C	0.672128	0.903969	0.414928
903	C	0.663622	0.950425	0.396093
904	C	0.630523	0.981991	0.406638
905	C	0.604912	0.967957	0.434104
906	C	0.611808	0.916186	0.44686
907	H	0.623895	0.014157	0.392213
908	H	0.591505	0.898276	0.461939
909	H	0.360617	0.878386	0.406929
910	C	0.529987	0.873407	0.188154
911	C	0.502824	0.854202	0.164645
912	C	0.51133	0.807693	0.145885
913	C	0.544434	0.776203	0.156488
914	C	0.56995	0.790249	0.18402
915	C	0.562912	0.841968	0.196813
916	H	0.551086	0.743992	0.142114
917	H	0.58309	0.859874	0.212004
918	H	0.480987	0.879816	0.156692
919	C	0.363173	0.884903	0.319948
920	C	0.336605	0.903662	0.344045
921	C	0.345411	0.950051	0.362781
922	C	0.378233	0.981808	0.351875
923	C	0.403413	0.967898	0.324093
924	C	0.396004	0.916394	0.311053
925	H	0.385019	0.01397	0.366248
926	H	0.415831	0.898627	0.295499
927	H	0.648267	0.877968	0.352196
928	C	0.478125	0.873156	0.069823
929	C	0.504848	0.854361	0.09378
930	C	0.496193	0.807956	0.112585
931	C	0.463285	0.776271	0.101747
932	C	0.437974	0.79017	0.074047
933	C	0.44522	0.841741	0.061069
934	H	0.45658	0.744059	0.1161
935	H	0.425283	0.859512	0.045604
936	H	0.526643	0.879912	0.101877
937	C	0.47737	0.927607	0.061603
938	C	0.499977	0.945777	0.034439
939	C	0.492561	0.495141	0.018327
940	C	0.459409	0.523727	0.03198
941	C	0.436179	0.509382	0.060709
942	C	0.446323	0.95942	0.074355
943	H	0.449768	0.554922	0.01859
944	H	0.429803	0.943689	0.093233
945	H	0.520018	0.919413	0.025026
946	C	0.363982	0.83044	0.311725
947	C	0.34145	0.812422	0.284482
948	C	0.348939	0.763129	0.268303
949	C	0.382159	0.734598	0.28189
950	C	0.405298	0.748856	0.31069
951	C	0.395062	0.798698	0.324456
952	H	0.392	0.70365	0.268355
953	H	0.411516	0.814378	0.343393
954	H	0.654678	0.838761	0.275139
955	C	0.530742	0.92791	0.19624
956	C	0.507853	0.946171	0.223216
957	C	0.515453	0.495344	0.239515
958	C	0.548809	0.523779	0.226075
959	C	0.572087	0.509414	0.197379
960	C	0.561982	0.959512	0.183667
961	H	0.558728	0.55462	0.239696
962	H	0.578582	0.943757	0.164842
963	H	0.487615	0.919919	0.232433
964	C	0.643958	0.83024	0.446301
965	C	0.666918	0.81186	0.47321
966	C	0.659354	0.762635	0.489461
967	C	0.626009	0.734208	0.475999
968	C	0.602701	0.748629	0.447333
969	C	0.612723	0.798631	0.433724
970	H	0.616168	0.703275	0.489568
971	H	0.596076	0.81445	0.414951
972	H	0.353802	0.838104	0.482469
973	C	0.530825	0.580282	0.446512
974	C	0.507972	0.561926	0.473484
975	C	0.515429	0.012563	0.4896
976	C	0.548637	0.984023	0.475989
977	C	0.571957	0.998559	0.44735
978	C	0.561973	0.548636	0.433826
979	H	0.558314	0.952816	0.489381
980	H	0.578582	0.564475	0.415033
981	H	0.487912	0.588265	0.482892
982	C	0.643922	0.677804	0.196617
983	C	0.666817	0.696244	0.223547
984	C	0.659428	0.745705	0.239567
985	C	0.626279	0.774271	0.225894
986	C	0.602894	0.759655	0.197306
987	C	0.612806	0.709474	0.183883
988	H	0.616753	0.805686	0.239153
989	H	0.596165	0.693571	0.165134
990	H	0.353457	0.669857	0.233037
991	C	0.477287	0.580501	0.311334
992	C	0.499893	0.562288	0.284188
993	C	0.492591	0.012756	0.268246
994	C	0.459608	0.984027	0.282076
995	C	0.436295	0.998567	0.310725
996	C	0.446299	0.548704	0.324197
997	H	0.450276	0.952401	0.26896
998	H	0.429768	0.564527	0.343037
999	H	0.519676	0.588815	0.274559
1000	C	0.364047	0.677601	0.061428
1001	C	0.341554	0.695719	0.034179
1002	C	0.348871	0.745219	0.018196
1003	C	0.381877	0.77392	0.031995
1004	C	0.405096	0.759484	0.060711
1005	C	0.395014	0.709438	0.074268
1006	H	0.391367	0.805367	0.018772
1007	H	0.411447	0.693731	0.093207
1008	H	0.655032	0.669248	0.024598
1009	C	0.36317	0.623189	0.5697
1010	C	0.336804	0.604749	0.594035
1011	C	0.345385	0.558269	0.612748
1012	C	0.378091	0.52632	0.601818
1013	C	0.40328	0.540084	0.574008
1014	C	0.39593	0.591544	0.560864
1015	H	0.384796	0.494137	0.616194
1016	H	0.415784	0.609167	0.545265
1017	H	0.648413	0.630404	0.602154
1018	C	0.478146	0.634905	0.819641
1019	C	0.504643	0.653369	0.843874
1020	C	0.496142	0.699857	0.862602
1021	C	0.463472	0.731898	0.851702
1022	C	0.438194	0.718122	0.823951
1023	C	0.445395	0.666602	0.810855
1024	H	0.456806	0.764073	0.866094
1025	H	0.425425	0.648987	0.795343
1026	H	0.526369	0.627691	0.85196
1027	C	0.644811	0.623309	0.688527
1028	C	0.672036	0.604415	0.664976
1029	C	0.663553	0.558069	0.646046
1030	C	0.630639	0.526213	0.656688
1031	C	0.605016	0.540123	0.684182
1032	C	0.6119	0.591803	0.697089
1033	H	0.624059	0.494037	0.64226
1034	H	0.591603	0.609585	0.712243
1035	H	0.360436	0.630117	0.656961
1036	C	0.529945	0.634774	0.938406
1037	C	0.502782	0.653656	0.914807
1038	C	0.511306	0.700001	0.895897
1039	C	0.544194	0.731866	0.906596
1040	C	0.569748	0.717971	0.934137
1041	C	0.562832	0.666284	0.947025
1042	H	0.55081	0.764021	0.892161
1043	H	0.583082	0.648489	0.962214
1044	H	0.481062	0.627954	0.90677
1045	C	0.644751	0.884756	0.938261
1046	C	0.672128	0.903969	0.914929
1047	C	0.663622	0.950425	0.896094
1048	C	0.630523	0.981991	0.906636
1049	C	0.604912	0.967957	0.934105
1050	C	0.611808	0.916186	0.946858
1051	H	0.623895	0.014157	0.892211
1052	H	0.591505	0.898276	0.96194
1053	H	0.360617	0.878386	0.906927
1054	C	0.529987	0.873407	0.688154
1055	C	0.502824	0.854202	0.664645
1056	C	0.51133	0.807693	0.645884
1057	C	0.544434	0.776203	0.656489
1058	C	0.56995	0.790249	0.68402
1059	C	0.562912	0.841968	0.696813
1060	H	0.551086	0.743992	0.642113
1061	H	0.58309	0.859874	0.712004
1062	H	0.480987	0.879816	0.656692
1063	C	0.363173	0.884903	0.819946
1064	C	0.336605	0.903662	0.844045
1065	C	0.345411	0.950051	0.862781
1066	C	0.378233	0.981808	0.851876
1067	C	0.403413	0.967898	0.824093
1068	C	0.396004	0.916394	0.811054
1069	H	0.385019	0.01397	0.866246
1070	H	0.415831	0.898627	0.795499
1071	H	0.648267	0.877968	0.852197
1072	C	0.478125	0.873156	0.569822
1073	C	0.504848	0.854361	0.593779
1074	C	0.496193	0.807956	0.612584
1075	C	0.463285	0.776271	0.601746
1076	C	0.437974	0.79017	0.574046
1077	C	0.44522	0.841741	0.561068
1078	H	0.45658	0.744059	0.616099
1079	H	0.425283	0.859512	0.545604
1080	H	0.526643	0.879912	0.601876
1081	C	0.47737	0.927607	0.561603
1082	C	0.499977	0.945777	0.534437
1083	C	0.492561	0.495141	0.518326
1084	C	0.459409	0.523727	0.53198
1085	C	0.436179	0.509382	0.560708
1086	C	0.446323	0.95942	0.574354
1087	H	0.449768	0.554922	0.51859
1088	H	0.429803	0.943689	0.593234
1089	H	0.520018	0.919413	0.525025
1090	C	0.363982	0.83044	0.811725
1091	C	0.34145	0.812422	0.78448
1092	C	0.348939	0.763129	0.768304
1093	C	0.382159	0.734598	0.78189
1094	C	0.405298	0.748856	0.810691
1095	C	0.395062	0.798698	0.824454
1096	H	0.392	0.70365	0.768356
1097	H	0.411516	0.814378	0.843391
1098	H	0.654678	0.838761	0.775137
1099	C	0.530742	0.92791	0.696239
1100	C	0.507853	0.946171	0.723215
1101	C	0.515453	0.495344	0.739513
1102	C	0.548809	0.523779	0.726074
1103	C	0.572087	0.509414	0.697378
1104	C	0.561982	0.959512	0.683667
1105	H	0.558728	0.55462	0.739695
1106	H	0.578582	0.943757	0.664841
1107	H	0.487615	0.919919	0.732432
1108	C	0.643958	0.83024	0.946301
1109	C	0.666918	0.81186	0.973208
1110	C	0.659354	0.762635	0.989461
1111	C	0.626009	0.734208	0.975999
1112	C	0.602701	0.748629	0.947333
1113	C	0.612723	0.798631	0.933724
1114	H	0.616168	0.703275	0.989568
1115	H	0.596076	0.81445	0.914951
1116	H	0.353802	0.838104	0.982467
1117	C	0.530825	0.580282	0.94651
1118	C	0.507972	0.561926	0.973484
1119	C	0.515429	0.012563	0.989601
1120	C	0.548637	0.984023	0.975989
1121	C	0.571957	0.998559	0.947348
1122	C	0.561973	0.548636	0.933824
1123	H	0.558314	0.952816	0.989382
1124	H	0.578582	0.564475	0.915031
1125	H	0.487912	0.588265	0.98289
1126	C	0.643922	0.677804	0.696617
1127	C	0.666817	0.696244	0.723546
1128	C	0.659428	0.745705	0.739566
1129	C	0.626279	0.774271	0.725894
1130	C	0.602894	0.759655	0.697306
1131	C	0.612806	0.709474	0.683883
1132	H	0.616753	0.805686	0.739153
1133	H	0.596165	0.693571	0.665133
1134	H	0.353457	0.669857	0.733036
1135	C	0.477287	0.580501	0.811335
1136	C	0.499893	0.562288	0.784186
1137	C	0.492591	0.012756	0.768246
1138	C	0.459608	0.984027	0.782077
1139	C	0.436295	0.998567	0.810723
1140	C	0.446299	0.548704	0.824195
1141	H	0.450276	0.952401	0.76896
1142	H	0.429768	0.564527	0.843038
1143	H	0.519676	0.588815	0.774557
1144	C	0.364047	0.677601	0.561427
1145	C	0.341554	0.695719	0.534179
1146	C	0.348871	0.745219	0.518196
1147	C	0.381877	0.77392	0.531995
1148	C	0.405096	0.759484	0.56071
1149	C	0.395014	0.709438	0.574267
1150	H	0.391367	0.805367	0.518771
1151	H	0.411447	0.693731	0.593207
1152	H	0.655032	0.669248	0.524597
1153	C	0.696506	0.123191	0.069701
1154	C	0.670137	0.104751	0.094037
1155	C	0.678717	0.05827	0.112749
1156	C	0.711423	0.026322	0.101819
1157	C	0.736612	0.040085	0.074008
1158	C	0.729262	0.091543	0.060866
1159	H	0.718128	0.994133	0.116195
1160	H	0.749119	0.10917	0.045266
1161	H	0.981745	0.130404	0.102156
1162	C	0.811478	0.134906	0.31964
1163	C	0.837978	0.153368	0.343873
1164	C	0.829475	0.19986	0.362601
1165	C	0.796805	0.231898	0.351701
1166	C	0.771526	0.218125	0.323953
1167	C	0.778728	0.166602	0.310854
1168	H	0.790138	0.264076	0.366096
1169	H	0.758758	0.148988	0.295342
1170	H	0.859705	0.127692	0.35196
1171	C	0.978146	0.123308	0.188527
1172	C	0.00537	0.104414	0.164977
1173	C	0.996886	0.058071	0.146047
1174	C	0.963972	0.026213	0.156689
1175	C	0.938349	0.040122	0.184183
1176	C	0.945235	0.091803	0.197089
1177	H	0.957394	0.994038	0.142261
1178	H	0.924935	0.109585	0.212242
1179	H	0.693768	0.130118	0.156962
1180	C	0.86328	0.134775	0.438408
1181	C	0.836118	0.153655	0.414809
1182	C	0.844642	0.200003	0.395897
1183	C	0.877526	0.231865	0.406595
1184	C	0.903081	0.217971	0.434139
1185	C	0.896165	0.166286	0.447024
1186	H	0.884145	0.264021	0.39216
1187	H	0.916414	0.14849	0.462213
1188	H	0.814394	0.127954	0.406769
1189	C	0.978087	0.384756	0.438263
1190	C	0.005463	0.403968	0.414928
1191	C	0.996954	0.450429	0.396093
1192	C	0.963856	0.481995	0.406638
1193	C	0.938245	0.467957	0.434104
1194	C	0.945143	0.41619	0.44686
1195	H	0.957231	0.514158	0.392213
1196	H	0.924837	0.398276	0.461939
1197	H	0.69395	0.378388	0.406929
1198	C	0.863319	0.373408	0.188154
1199	C	0.836156	0.354204	0.164645
1200	C	0.844663	0.307694	0.145885
1201	C	0.877767	0.276202	0.156488
1202	C	0.903283	0.290249	0.18402
1203	C	0.896245	0.34197	0.196813
1204	H	0.884422	0.24399	0.142114
1205	H	0.916423	0.359875	0.212004
1206	H	0.81432	0.379815	0.156692
1207	C	0.696506	0.384902	0.319948
1208	C	0.66994	0.403661	0.344045
1209	C	0.678747	0.45005	0.362781
1210	C	0.711566	0.481808	0.351875
1211	C	0.736749	0.467901	0.324093
1212	C	0.729336	0.416393	0.311053
1213	H	0.718351	0.513971	0.366248
1214	H	0.749164	0.398626	0.295499
1215	H	0.9816	0.377968	0.352196
1216	C	0.811458	0.373155	0.069823
1217	C	0.83818	0.354364	0.09378
1218	C	0.829525	0.307957	0.112585
1219	C	0.796618	0.276272	0.101747
1220	C	0.771309	0.290171	0.074047
1221	C	0.778553	0.341743	0.061069
1222	H	0.789912	0.244059	0.1161
1223	H	0.758615	0.359513	0.045604
1224	H	0.859978	0.379912	0.101877
1225	C	0.810703	0.427607	0.061603
1226	C	0.833309	0.445776	0.034439
1227	C	0.825893	0.995141	0.018327
1228	C	0.792742	0.023728	0.03198
1229	C	0.769514	0.009382	0.060709
1230	C	0.779655	0.45942	0.074355
1231	H	0.7831	0.054922	0.01859
1232	H	0.763139	0.443689	0.093233
1233	H	0.85335	0.419413	0.025026
1234	C	0.697314	0.330441	0.311725
1235	C	0.674782	0.312423	0.284482
1236	C	0.682272	0.263128	0.268303
1237	C	0.715492	0.234598	0.28189
1238	C	0.73863	0.248857	0.31069
1239	C	0.728394	0.2987	0.324456
1240	H	0.725333	0.203651	0.268355
1241	H	0.744848	0.314378	0.343393
1242	H	0.988011	0.338762	0.275139
1243	C	0.864074	0.427914	0.19624
1244	C	0.841185	0.44617	0.223216
1245	C	0.848785	0.995344	0.239515
1246	C	0.882142	0.02378	0.226075
1247	C	0.90542	0.009414	0.197379
1248	C	0.895315	0.459511	0.183667
1249	H	0.89206	0.054622	0.239696
1250	H	0.911914	0.443756	0.164842
1251	H	0.820948	0.419918	0.232433
1252	C	0.977293	0.330241	0.446301
1253	C	0.00025	0.31186	0.47321
1254	C	0.992686	0.262637	0.489461
1255	C	0.959344	0.234209	0.475999
1256	C	0.936033	0.248628	0.447333
1257	C	0.946059	0.29863	0.433724
1258	H	0.9495	0.203274	0.489568
1259	H	0.929408	0.31445	0.414951
1260	H	0.687134	0.338104	0.482469
1261	C	0.864157	0.080284	0.446512
1262	C	0.841304	0.061926	0.473484
1263	C	0.848764	0.512561	0.4896
1264	C	0.88197	0.484026	0.475989
1265	C	0.905289	0.498559	0.44735
1266	C	0.895309	0.048637	0.433826
1267	H	0.891647	0.452815	0.489381
1268	H	0.911914	0.064474	0.415033
1269	H	0.821248	0.088265	0.482892
1270	C	0.977255	0.177806	0.196617
1271	C	0.000149	0.196245	0.223547
1272	C	0.992763	0.245703	0.239567
1273	C	0.959612	0.274272	0.225894
1274	C	0.936227	0.259655	0.197306
1275	C	0.946139	0.209473	0.183883
1276	H	0.950089	0.305686	0.239153
1277	H	0.929498	0.193574	0.165134
1278	H	0.68679	0.169856	0.233037
1279	C	0.810619	0.0805	0.311334
1280	C	0.833226	0.062289	0.284188
1281	C	0.825923	0.512756	0.268246
1282	C	0.792944	0.484026	0.282076
1283	C	0.769627	0.498567	0.310725
1284	C	0.779632	0.048706	0.324197
1285	H	0.783608	0.452401	0.26896
1286	H	0.7631	0.064527	0.343037
1287	H	0.853009	0.088817	0.274559
1288	C	0.69738	0.177603	0.061428
1289	C	0.674886	0.195718	0.034179
1290	C	0.682204	0.245217	0.018196
1291	C	0.71521	0.273922	0.031995
1292	C	0.738428	0.259484	0.060711
1293	C	0.728347	0.209438	0.074268
1294	H	0.724703	0.305369	0.018772
1295	H	0.74478	0.193732	0.093207
1296	H	0.988364	0.169249	0.024598
1297	C	0.696506	0.123191	0.5697
1298	C	0.670137	0.104751	0.594035
1299	C	0.678717	0.05827	0.612748
1300	C	0.711423	0.026322	0.601818
1301	C	0.736612	0.040085	0.574008
1302	C	0.729262	0.091543	0.560864
1303	H	0.718128	0.994133	0.616194
1304	H	0.749119	0.10917	0.545265
1305	H	0.981745	0.130404	0.602154
1306	C	0.811478	0.134906	0.819641
1307	C	0.837978	0.153368	0.843874
1308	C	0.829475	0.19986	0.862602
1309	C	0.796805	0.231898	0.851702
1310	C	0.771526	0.218125	0.823951
1311	C	0.778728	0.166602	0.810855
1312	H	0.790138	0.264076	0.866094
1313	H	0.758758	0.148988	0.795343
1314	H	0.859705	0.127692	0.85196
1315	C	0.978146	0.123308	0.688527
1316	C	0.00537	0.104414	0.664976
1317	C	0.996886	0.058071	0.646046
1318	C	0.963972	0.026213	0.656688
1319	C	0.938349	0.040122	0.684182
1320	C	0.945235	0.091803	0.697089
1321	H	0.957394	0.994038	0.64226
1322	H	0.924935	0.109585	0.712243
1323	H	0.693768	0.130118	0.656961
1324	C	0.86328	0.134775	0.938406
1325	C	0.836118	0.153655	0.914807
1326	C	0.844642	0.200003	0.895897
1327	C	0.877526	0.231865	0.906596
1328	C	0.903081	0.217971	0.934137
1329	C	0.896165	0.166286	0.947025
1330	H	0.884145	0.264021	0.892161
1331	H	0.916414	0.14849	0.962214
1332	H	0.814394	0.127954	0.90677
1333	C	0.978087	0.384756	0.938261
1334	C	0.005463	0.403968	0.914929
1335	C	0.996954	0.450429	0.896094
1336	C	0.963856	0.481995	0.906636
1337	C	0.938245	0.467957	0.934105
1338	C	0.945143	0.41619	0.946858
1339	H	0.957231	0.514158	0.892211
1340	H	0.924837	0.398276	0.96194
1341	H	0.69395	0.378388	0.906927
1342	C	0.863319	0.373408	0.688154
1343	C	0.836156	0.354204	0.664645
1344	C	0.844663	0.307694	0.645884
1345	C	0.877767	0.276202	0.656489
1346	C	0.903283	0.290249	0.68402
1347	C	0.896245	0.34197	0.696813
1348	H	0.884422	0.24399	0.642113
1349	H	0.916423	0.359875	0.712004
1350	H	0.81432	0.379815	0.656692
1351	C	0.696506	0.384902	0.819946
1352	C	0.66994	0.403661	0.844045
1353	C	0.678747	0.45005	0.862781
1354	C	0.711566	0.481808	0.851876
1355	C	0.736749	0.467901	0.824093
1356	C	0.729336	0.416393	0.811054
1357	H	0.718351	0.513971	0.866246
1358	H	0.749164	0.398626	0.795499
1359	H	0.9816	0.377968	0.852197
1360	C	0.811458	0.373155	0.569822
1361	C	0.83818	0.354364	0.593779
1362	C	0.829525	0.307957	0.612584
1363	C	0.796618	0.276272	0.601746
1364	C	0.771309	0.290171	0.574046
1365	C	0.778553	0.341743	0.561068
1366	H	0.789912	0.244059	0.616099
1367	H	0.758615	0.359513	0.545604
1368	H	0.859978	0.379912	0.601876
1369	C	0.810703	0.427607	0.561603
1370	C	0.833309	0.445776	0.534437
1371	C	0.825893	0.995141	0.518326
1372	C	0.792742	0.023728	0.53198
1373	C	0.769514	0.009382	0.560708
1374	C	0.779655	0.45942	0.574354
1375	H	0.7831	0.054922	0.51859
1376	H	0.763139	0.443689	0.593234
1377	H	0.85335	0.419413	0.525025
1378	C	0.697314	0.330441	0.811725
1379	C	0.674782	0.312423	0.78448
1380	C	0.682272	0.263128	0.768304
1381	C	0.715492	0.234598	0.78189
1382	C	0.73863	0.248857	0.810691
1383	C	0.728394	0.2987	0.824454
1384	H	0.725333	0.203651	0.768356
1385	H	0.744848	0.314378	0.843391
1386	H	0.988011	0.338762	0.775137
1387	C	0.864074	0.427914	0.696239
1388	C	0.841185	0.44617	0.723215
1389	C	0.848785	0.995344	0.739513
1390	C	0.882142	0.02378	0.726074
1391	C	0.90542	0.009414	0.697378
1392	C	0.895315	0.459511	0.683667
1393	H	0.89206	0.054622	0.739695
1394	H	0.911914	0.443756	0.664841
1395	H	0.820948	0.419918	0.732432
1396	C	0.977293	0.330241	0.946301
1397	C	0.00025	0.31186	0.973208
1398	C	0.992686	0.262637	0.989461
1399	C	0.959344	0.234209	0.975999
1400	C	0.936033	0.248628	0.947333
1401	C	0.946059	0.29863	0.933724
1402	H	0.9495	0.203274	0.989568
1403	H	0.929408	0.31445	0.914951
1404	H	0.687134	0.338104	0.982467
1405	C	0.864157	0.080284	0.94651
1406	C	0.841304	0.061926	0.973484
1407	C	0.848764	0.512561	0.989601
1408	C	0.88197	0.484026	0.975989
1409	C	0.905289	0.498559	0.947348
1410	C	0.895309	0.048637	0.933824
1411	H	0.891647	0.452815	0.989382
1412	H	0.911914	0.064474	0.915031
1413	H	0.821248	0.088265	0.98289
1414	C	0.977255	0.177806	0.696617
1415	C	0.000149	0.196245	0.723546
1416	C	0.992763	0.245703	0.739566
1417	C	0.959612	0.274272	0.725894
1418	C	0.936227	0.259655	0.697306
1419	C	0.946139	0.209473	0.683883
1420	H	0.950089	0.305686	0.739153
1421	H	0.929498	0.193574	0.665133
1422	H	0.68679	0.169856	0.733036
1423	C	0.810619	0.0805	0.811335
1424	C	0.833226	0.062289	0.784186
1425	C	0.825923	0.512756	0.768246
1426	C	0.792944	0.484026	0.782077
1427	C	0.769627	0.498567	0.810723
1428	C	0.779632	0.048706	0.824195
1429	H	0.783608	0.452401	0.76896
1430	H	0.7631	0.064527	0.843038
1431	H	0.853009	0.088817	0.774557
1432	C	0.69738	0.177603	0.561427
1433	C	0.674886	0.195718	0.534179
1434	C	0.682204	0.245217	0.518196
1435	C	0.71521	0.273922	0.531995
1436	C	0.738428	0.259484	0.56071
1437	C	0.728347	0.209438	0.574267
1438	H	0.724703	0.305369	0.518771
1439	H	0.74478	0.193732	0.593207
1440	H	0.988364	0.169249	0.524597
1441	C	0.696506	0.623189	0.069701
1442	C	0.670137	0.604749	0.094037
1443	C	0.678717	0.558269	0.112749
1444	C	0.711423	0.52632	0.101819
1445	C	0.736612	0.540084	0.074008
1446	C	0.729262	0.591544	0.060866
1447	H	0.718128	0.494137	0.116195
1448	H	0.749119	0.609167	0.045266
1449	H	0.981745	0.630404	0.102156
1450	C	0.811478	0.634905	0.31964
1451	C	0.837978	0.653369	0.343873
1452	C	0.829475	0.699857	0.362601
1453	C	0.796805	0.731898	0.351701
1454	C	0.771526	0.718122	0.323953
1455	C	0.778728	0.666602	0.310854
1456	H	0.790138	0.764073	0.366096
1457	H	0.758758	0.648987	0.295342
1458	H	0.859705	0.627691	0.35196
1459	C	0.978146	0.623309	0.188527
1460	C	0.00537	0.604415	0.164977
1461	C	0.996886	0.558069	0.146047
1462	C	0.963972	0.526213	0.156689
1463	C	0.938349	0.540123	0.184183
1464	C	0.945235	0.591803	0.197089
1465	H	0.957394	0.494037	0.142261
1466	H	0.924935	0.609585	0.212242
1467	H	0.693768	0.630117	0.156962
1468	C	0.86328	0.634774	0.438408
1469	C	0.836118	0.653656	0.414809
1470	C	0.844642	0.700001	0.395897
1471	C	0.877526	0.731866	0.406595
1472	C	0.903081	0.717971	0.434139
1473	C	0.896165	0.666284	0.447024
1474	H	0.884145	0.764021	0.39216
1475	H	0.916414	0.648489	0.462213
1476	H	0.814394	0.627954	0.406769
1477	C	0.978087	0.884756	0.438263
1478	C	0.005463	0.903969	0.414928
1479	C	0.996954	0.950425	0.396093
1480	C	0.963856	0.981991	0.406638
1481	C	0.938245	0.967957	0.434104
1482	C	0.945143	0.916186	0.44686
1483	H	0.957231	0.014157	0.392213
1484	H	0.924837	0.898276	0.461939
1485	H	0.69395	0.878386	0.406929
1486	C	0.863319	0.873407	0.188154
1487	C	0.836156	0.854202	0.164645
1488	C	0.844663	0.807693	0.145885
1489	C	0.877767	0.776203	0.156488
1490	C	0.903283	0.790249	0.18402
1491	C	0.896245	0.841968	0.196813
1492	H	0.884422	0.743992	0.142114
1493	H	0.916423	0.859874	0.212004
1494	H	0.81432	0.879816	0.156692
1495	C	0.696506	0.884903	0.319948
1496	C	0.66994	0.903662	0.344045
1497	C	0.678747	0.950051	0.362781
1498	C	0.711566	0.981808	0.351875
1499	C	0.736749	0.967898	0.324093
1500	C	0.729336	0.916394	0.311053
1501	H	0.718351	0.01397	0.366248
1502	H	0.749164	0.898627	0.295499
1503	H	0.9816	0.877968	0.352196
1504	C	0.811458	0.873156	0.069823
1505	C	0.83818	0.854361	0.09378
1506	C	0.829525	0.807956	0.112585
1507	C	0.796618	0.776271	0.101747
1508	C	0.771309	0.79017	0.074047
1509	C	0.778553	0.841741	0.061069
1510	H	0.789912	0.744059	0.1161
1511	H	0.758615	0.859512	0.045604
1512	H	0.859978	0.879912	0.101877
1513	C	0.810703	0.927607	0.061603
1514	C	0.833309	0.945777	0.034439
1515	C	0.825893	0.495141	0.018327
1516	C	0.792742	0.523727	0.03198
1517	C	0.769514	0.509382	0.060709
1518	C	0.779655	0.95942	0.074355
1519	H	0.7831	0.554922	0.01859
1520	H	0.763139	0.943689	0.093233
1521	H	0.85335	0.919413	0.025026
1522	C	0.697314	0.83044	0.311725
1523	C	0.674782	0.812422	0.284482
1524	C	0.682272	0.763129	0.268303
1525	C	0.715492	0.734598	0.28189
1526	C	0.73863	0.748856	0.31069
1527	C	0.728394	0.798698	0.324456
1528	H	0.725333	0.70365	0.268355
1529	H	0.744848	0.814378	0.343393
1530	H	0.988011	0.838761	0.275139
1531	C	0.864074	0.92791	0.19624
1532	C	0.841185	0.946171	0.223216
1533	C	0.848785	0.495344	0.239515
1534	C	0.882142	0.523779	0.226075
1535	C	0.90542	0.509414	0.197379
1536	C	0.895315	0.959512	0.183667
1537	H	0.89206	0.55462	0.239696
1538	H	0.911914	0.943757	0.164842
1539	H	0.820948	0.919919	0.232433
1540	C	0.977293	0.83024	0.446301
1541	C	0.00025	0.81186	0.47321
1542	C	0.992686	0.762635	0.489461
1543	C	0.959344	0.734208	0.475999
1544	C	0.936033	0.748629	0.447333
1545	C	0.946059	0.798631	0.433724
1546	H	0.9495	0.703275	0.489568
1547	H	0.929408	0.81445	0.414951
1548	H	0.687134	0.838104	0.482469
1549	C	0.864157	0.580282	0.446512
1550	C	0.841304	0.561926	0.473484
1551	C	0.848764	0.012563	0.4896
1552	C	0.88197	0.984023	0.475989
1553	C	0.905289	0.998559	0.44735
1554	C	0.895309	0.548636	0.433826
1555	H	0.891647	0.952816	0.489381
1556	H	0.911914	0.564475	0.415033
1557	H	0.821248	0.588265	0.482892
1558	C	0.977255	0.677804	0.196617
1559	C	0.000149	0.696244	0.223547
1560	C	0.992763	0.745705	0.239567
1561	C	0.959612	0.774271	0.225894
1562	C	0.936227	0.759655	0.197306
1563	C	0.946139	0.709474	0.183883
1564	H	0.950089	0.805686	0.239153
1565	H	0.929498	0.693571	0.165134
1566	H	0.68679	0.669857	0.233037
1567	C	0.810619	0.580501	0.311334
1568	C	0.833226	0.562288	0.284188
1569	C	0.825923	0.012756	0.268246
1570	C	0.792944	0.984027	0.282076
1571	C	0.769627	0.998567	0.310725
1572	C	0.779632	0.548704	0.324197
1573	H	0.783608	0.952401	0.26896
1574	H	0.7631	0.564527	0.343037
1575	H	0.853009	0.588815	0.274559
1576	C	0.69738	0.677601	0.061428
1577	C	0.674886	0.695719	0.034179
1578	C	0.682204	0.745219	0.018196
1579	C	0.71521	0.77392	0.031995
1580	C	0.738428	0.759484	0.060711
1581	C	0.728347	0.709438	0.074268
1582	H	0.724703	0.805367	0.018772
1583	H	0.74478	0.693731	0.093207
1584	H	0.988364	0.669248	0.024598
1585	C	0.696506	0.623189	0.5697
1586	C	0.670137	0.604749	0.594035
1587	C	0.678717	0.558269	0.612748
1588	C	0.711423	0.52632	0.601818
1589	C	0.736612	0.540084	0.574008
1590	C	0.729262	0.591544	0.560864
1591	H	0.718128	0.494137	0.616194
1592	H	0.749119	0.609167	0.545265
1593	H	0.981745	0.630404	0.602154
1594	C	0.811478	0.634905	0.819641
1595	C	0.837978	0.653369	0.843874
1596	C	0.829475	0.699857	0.862602
1597	C	0.796805	0.731898	0.851702
1598	C	0.771526	0.718122	0.823951
1599	C	0.778728	0.666602	0.810855
1600	H	0.790138	0.764073	0.866094
1601	H	0.758758	0.648987	0.795343
1602	H	0.859705	0.627691	0.85196
1603	C	0.978146	0.623309	0.688527
1604	C	0.00537	0.604415	0.664976
1605	C	0.996886	0.558069	0.646046
1606	C	0.963972	0.526213	0.656688
1607	C	0.938349	0.540123	0.684182
1608	C	0.945235	0.591803	0.697089
1609	H	0.957394	0.494037	0.64226
1610	H	0.924935	0.609585	0.712243
1611	H	0.693768	0.630117	0.656961
1612	C	0.86328	0.634774	0.938406
1613	C	0.836118	0.653656	0.914807
1614	C	0.844642	0.700001	0.895897
1615	C	0.877526	0.731866	0.906596
1616	C	0.903081	0.717971	0.934137
1617	C	0.896165	0.666284	0.947025
1618	H	0.884145	0.764021	0.892161
1619	H	0.916414	0.648489	0.962214
1620	H	0.814394	0.627954	0.90677
1621	C	0.978087	0.884756	0.938261
1622	C	0.005463	0.903969	0.914929
1623	C	0.996954	0.950425	0.896094
1624	C	0.963856	0.981991	0.906636
1625	C	0.938245	0.967957	0.934105
1626	C	0.945143	0.916186	0.946858
1627	H	0.957231	0.014157	0.892211
1628	H	0.924837	0.898276	0.96194
1629	H	0.69395	0.878386	0.906927
1630	C	0.863319	0.873407	0.688154
1631	C	0.836156	0.854202	0.664645
1632	C	0.844663	0.807693	0.645884
1633	C	0.877767	0.776203	0.656489
1634	C	0.903283	0.790249	0.68402
1635	C	0.896245	0.841968	0.696813
1636	H	0.884422	0.743992	0.642113
1637	H	0.916423	0.859874	0.712004
1638	H	0.81432	0.879816	0.656692
1639	C	0.696506	0.884903	0.819946
1640	C	0.66994	0.903662	0.844045
1641	C	0.678747	0.950051	0.862781
1642	C	0.711566	0.981808	0.851876
1643	C	0.736749	0.967898	0.824093
1644	C	0.729336	0.916394	0.811054
1645	H	0.718351	0.01397	0.866246
1646	H	0.749164	0.898627	0.795499
1647	H	0.9816	0.877968	0.852197
1648	C	0.811458	0.873156	0.569822
1649	C	0.83818	0.854361	0.593779
1650	C	0.829525	0.807956	0.612584
1651	C	0.796618	0.776271	0.601746
1652	C	0.771309	0.79017	0.574046
1653	C	0.778553	0.841741	0.561068
1654	H	0.789912	0.744059	0.616099
1655	H	0.758615	0.859512	0.545604
1656	H	0.859978	0.879912	0.601876
1657	C	0.810703	0.927607	0.561603
1658	C	0.833309	0.945777	0.534437
1659	C	0.825893	0.495141	0.518326
1660	C	0.792742	0.523727	0.53198
1661	C	0.769514	0.509382	0.560708
1662	C	0.779655	0.95942	0.574354
1663	H	0.7831	0.554922	0.51859
1664	H	0.763139	0.943689	0.593234
1665	H	0.85335	0.919413	0.525025
1666	C	0.697314	0.83044	0.811725
1667	C	0.674782	0.812422	0.78448
1668	C	0.682272	0.763129	0.768304
1669	C	0.715492	0.734598	0.78189
1670	C	0.73863	0.748856	0.810691
1671	C	0.728394	0.798698	0.824454
1672	H	0.725333	0.70365	0.768356
1673	H	0.744848	0.814378	0.843391
1674	H	0.988011	0.838761	0.775137
1675	C	0.864074	0.92791	0.696239
1676	C	0.841185	0.946171	0.723215
1677	C	0.848785	0.495344	0.739513
1678	C	0.882142	0.523779	0.726074
1679	C	0.90542	0.509414	0.697378
1680	C	0.895315	0.959512	0.683667
1681	H	0.89206	0.55462	0.739695
1682	H	0.911914	0.943757	0.664841
1683	H	0.820948	0.919919	0.732432
1684	C	0.977293	0.83024	0.946301
1685	C	0.00025	0.81186	0.973208
1686	C	0.992686	0.762635	0.989461
1687	C	0.959344	0.734208	0.975999
1688	C	0.936033	0.748629	0.947333
1689	C	0.946059	0.798631	0.933724
1690	H	0.9495	0.703275	0.989568
1691	H	0.929408	0.81445	0.914951
1692	H	0.687134	0.838104	0.982467
1693	C	0.864157	0.580282	0.94651
1694	C	0.841304	0.561926	0.973484
1695	C	0.848764	0.012563	0.989601
1696	C	0.88197	0.984023	0.975989
1697	C	0.905289	0.998559	0.947348
1698	C	0.895309	0.548636	0.933824
1699	H	0.891647	0.952816	0.989382
1700	H	0.911914	0.564475	0.915031
1701	H	0.821248	0.588265	0.98289
1702	C	0.977255	0.677804	0.696617
1703	C	0.000149	0.696244	0.723546
1704	C	0.992763	0.745705	0.739566
1705	C	0.959612	0.774271	0.725894
1706	C	0.936227	0.759655	0.697306
1707	C	0.946139	0.709474	0.683883
1708	H	0.950089	0.805686	0.739153
1709	H	0.929498	0.693571	0.665133
1710	H	0.68679	0.669857	0.733036
1711	C	0.810619	0.580501	0.811335
1712	C	0.833226	0.562288	0.784186
1713	C	0.825923	0.012756	0.768246
1714	C	0.792944	0.984027	0.782077
1715	C	0.769627	0.998567	0.810723
1716	C	0.779632	0.548704	0.824195
1717	H	0.783608	0.952401	0.76896
1718	H	0.7631	0.564527	0.843038
1719	H	0.853009	0.588815	0.774557
1720	C	0.69738	0.677601	0.561427
1721	C	0.674886	0.695719	0.534179
1722	C	0.682204	0.745219	0.518196
1723	C	0.71521	0.77392	0.531995
1724	C	0.738428	0.759484	0.56071
1725	C	0.728347	0.709438	0.574267
1726	H	0.724703	0.805367	0.518771
1727	H	0.74478	0.693731	0.593207
1728	H	0.988364	0.669248	0.524597
