data_C896H768N64_2018-02-15_12:14:18
#******************************************
#
# CIF file created by Zeo++
# Zeo++ is an open source package to
# analyze microporous materials
#
#*******************************************

_cell_length_a		28.5709   
_cell_length_b		28.5709   
_cell_length_c		42.0727   
_cell_angle_alpha		89.1434   
_cell_angle_beta		89.1434   
_cell_angle_gamma		89.9872   

_symmetry_space_group_name_H-M		'P1'
_symmetry_Int_Tables_number		1
_symmetry_cell_setting		Monoclinic

loop_
_symmetry_equiv_pos_as_xyz
'+x,+y,+z'

loop_
_atom_site_label
_atom_site_type_symbol
_atom_site_fract_x
_atom_site_fract_y
_atom_site_fract_z
1	C	0.397936	0.145564	0.01113
2	C	0.355733	0.126071	0.022883
3	C	0.348958	0.116754	0.055517
4	C	0.382247	0.132308	0.077799
5	C	0.424768	0.153968	0.06634
6	C	0.431318	0.160296	0.033296
7	H	0.333496	0.110215	0.507394
8	N	0.371054	0.12677	0.10933
9	C	0.410289	0.138305	0.478894
10	C	0.376888	0.13948	0.454526
11	C	0.387005	0.125502	0.423098
12	C	0.43208	0.10471	0.4166
13	C	0.964939	0.10133	0.441674
14	C	0.454869	0.120074	0.471596
15	N	0.947373	0.090765	0.387211
16	H	0.478119	0.113652	0.989515
17	H	0.430938	0.098394	0.368199
18	H	0.979038	0.079661	0.383346
19	H	0.389463	0.140651	0.12561
20	H	0.340641	0.115075	0.116454
21	H	0.462763	0.172934	0.024907
22	H	0.343971	0.151343	0.459947
23	C	0.428447	0.181319	0.260952
24	C	0.470234	0.201175	0.271899
25	C	0.976204	0.20972	0.304393
26	C	0.442683	0.193285	0.327242
27	C	0.400679	0.171311	0.316487
28	C	0.394838	0.165497	0.283603
29	H	0.492406	0.217691	0.255902
30	N	0.953022	0.198467	0.358607
31	C	0.416413	0.188888	0.22881
32	C	0.449908	0.18729	0.203884
33	C	0.439531	0.200392	0.172248
34	C	0.394485	0.221048	0.166005
35	C	0.361673	0.22509	0.191647
36	C	0.371896	0.207181	0.221939
37	N	0.37923	0.234395	0.136519
38	H	0.348623	0.213692	0.240178
39	H	0.396064	0.227166	0.117414
40	H	0.347604	0.245475	0.132881
41	H	0.434147	0.184688	0.375291
42	H	0.983091	0.210432	0.365361
43	H	0.363721	0.152577	0.275698
44	H	0.482739	0.175158	0.208935
45	C	0.179077	0.396535	0.136204
46	C	0.198731	0.35446	0.147694
47	C	0.208217	0.348358	0.180193
48	C	0.192754	0.38198	0.202588
49	C	0.170615	0.424126	0.191368
50	C	0.163875	0.429999	0.158462
51	H	0.214989	0.332337	0.131999
52	N	0.198782	0.371396	0.23405
53	C	0.187084	0.40904	0.103922
54	C	0.186213	0.375895	0.079415
55	C	0.200198	0.386584	0.047772
56	C	0.220953	0.431772	0.041152
57	C	0.224172	0.964263	0.066374
58	C	0.205403	0.453685	0.096571
59	N	0.235046	0.94751	0.011624
60	H	0.211511	0.476736	0.114537
61	H	0.228137	0.43116	0.492598
62	H	0.246246	0.979218	0.007763
63	H	0.185371	0.390146	0.250593
64	H	0.211013	0.341315	0.241179
65	H	0.151058	0.461253	0.150112
66	H	0.174251	0.342922	0.084831
67	C	0.144865	0.427648	0.385835
68	C	0.125441	0.469792	0.396944
69	C	0.116721	0.976262	0.429552
70	C	0.132925	0.442957	0.45228
71	C	0.154486	0.400595	0.441351
72	C	0.160145	0.394131	0.408396
73	H	0.108987	0.491892	0.381211
74	N	0.127843	0.95384	0.483666
75	C	0.137309	0.415594	0.353843
76	C	0.139053	0.4492	0.32894
77	C	0.125578	0.439243	0.297592
78	C	0.104706	0.394323	0.291691
79	C	0.100694	0.361348	0.317333
80	C	0.118976	0.371131	0.347236
81	N	0.091148	0.379381	0.262442
82	H	0.11231	0.347775	0.365525
83	H	0.098807	0.396128	0.24324
84	H	0.08002	0.347807	0.258955
85	H	0.141722	0.435156	0.000151
86	H	0.116192	0.984145	0.49042
87	H	0.172739	0.362749	0.400465
88	H	0.15127	0.481962	0.333825
89	C	0.079757	0.007821	0.436803
90	C	0.033289	0.990873	0.441582
91	C	0.996691	0.023708	0.443605
92	C	0.005037	0.072196	0.440179
93	C	0.051324	0.089288	0.435498
94	H	0.962972	0.011986	0.446902
95	C	0.088196	0.056437	0.433853
96	H	0.121669	0.068039	0.429357
97	C	0.0631	0.13968	0.430867
98	H	0.032568	0.162515	0.431732
99	H	0.080275	0.145012	0.407735
100	H	0.086951	0.150585	0.449387
101	C	0.021414	0.440021	0.443203
102	H	0.034411	0.422587	0.421923
103	H	0.983781	0.433574	0.444936
104	H	0.03726	0.423899	0.464071
105	C	0.245885	0.3174	0.18687
106	C	0.292339	0.334929	0.189123
107	C	0.329309	0.302518	0.191097
108	C	0.321319	0.253846	0.190033
109	C	0.275047	0.236203	0.187756
110	H	0.363002	0.314657	0.192711
111	C	0.237811	0.268644	0.186167
112	H	0.20429	0.256586	0.183497
113	C	0.26357	0.185556	0.185676
114	H	0.294335	0.163025	0.186188
115	H	0.245412	0.179049	0.163517
116	H	0.240692	0.175305	0.205596
117	C	0.303735	0.38591	0.188286
118	H	0.289741	0.402328	0.166858
119	H	0.34134	0.392752	0.188315
120	H	0.288538	0.402739	0.209101
121	C	0.317438	0.079512	0.062802
122	C	0.334466	0.032888	0.066131
123	C	0.301743	0.996083	0.067475
124	C	0.253289	0.004418	0.064769
125	C	0.236102	0.050863	0.061622
126	H	0.313528	0.962276	0.06985
127	C	0.26884	0.087907	0.060585
128	H	0.257193	0.121538	0.057049
129	C	0.185726	0.062717	0.058016
130	H	0.163015	0.032075	0.058185
131	H	0.180682	0.081441	0.03551
132	H	0.174422	0.08519	0.077435
133	C	0.385338	0.021147	0.066972
134	H	0.403193	0.035188	0.045796
135	H	0.391905	0.983496	0.067837
136	H	0.400919	0.036084	0.088024
137	C	0.007499	0.246718	0.311314
138	C	0.990359	0.293049	0.315467
139	C	0.023078	0.329513	0.318201
140	C	0.07169	0.321202	0.316057
141	C	0.088956	0.275061	0.31188
142	H	0.011217	0.363158	0.320973
143	C	0.056195	0.238287	0.309607
144	H	0.067981	0.204915	0.305656
145	C	0.139508	0.263371	0.308409
146	H	0.162317	0.293815	0.309764
147	H	0.145954	0.247139	0.285422
148	H	0.149458	0.238732	0.327206
149	C	0.439489	0.304941	0.315714
150	H	0.423237	0.292513	0.294102
151	H	0.432992	0.342544	0.31697
152	H	0.422218	0.288574	0.336302
153	C	0.361568	0.160544	0.336531
154	C	0.349508	0.113198	0.343793
155	C	0.344102	0.101053	0.376411
156	C	0.352201	0.134922	0.399918
157	C	0.342701	0.182576	0.391231
158	H	0.347473	0.06649	0.382949
159	C	0.347741	0.194758	0.358661
160	H	0.353305	0.229264	0.352663
161	C	0.340596	0.222013	0.414061
162	H	0.313498	0.215034	0.432027
163	H	0.331543	0.255334	0.402631
164	H	0.37426	0.226543	0.425506
165	C	0.354773	0.074837	0.320417
166	H	0.33237	0.081898	0.300138
167	H	0.344391	0.040798	0.330373
168	H	0.391038	0.07215	0.312167
169	C	0.463589	0.163802	0.085896
170	C	0.477259	0.21078	0.091814
171	C	0.482903	0.222959	0.124049
172	C	0.473772	0.189558	0.148532
173	C	0.481141	0.141504	0.14082
174	H	0.48072	0.257653	0.12985
175	C	0.476078	0.129281	0.108618
176	H	0.469428	0.094936	0.103537
177	C	0.4813	0.102333	0.164676
178	H	0.508543	0.10834	0.182022
179	H	0.488872	0.068481	0.153995
180	H	0.447391	0.099544	0.176807
181	C	0.473529	0.249254	0.06769
182	H	0.496176	0.241584	0.047332
183	H	0.484623	0.283029	0.076802
184	H	0.437515	0.252927	0.05977
185	C	0.165049	0.361832	0.461535
186	C	0.212384	0.349885	0.467956
187	C	0.224372	0.344332	0.500341
188	C	0.190379	0.352391	0.024444
189	C	0.142594	0.343708	0.016709
190	H	0.258928	0.347414	0.506272
191	C	0.130621	0.348491	0.984337
192	H	0.096185	0.354235	0.978924
193	C	0.103061	0.342264	0.040291
194	H	0.109422	0.314885	0.058032
195	H	0.069559	0.334049	0.029486
196	H	0.099246	0.375919	0.051945
197	C	0.250841	0.355025	0.443857
198	H	0.243891	0.332472	0.42378
199	H	0.284859	0.344774	0.453219
200	H	0.253504	0.39124	0.435441
201	C	0.161025	0.463436	0.210732
202	C	0.114109	0.477311	0.217688
203	C	0.102129	0.483004	0.250204
204	C	0.135777	0.474017	0.273854
205	C	0.183701	0.481825	0.264996
206	H	0.067499	0.480611	0.256841
207	C	0.195662	0.476456	0.232526
208	H	0.229984	0.469865	0.226661
209	C	0.223098	0.482599	0.287861
210	H	0.216862	0.50977	0.305349
211	H	0.256701	0.4907	0.276312
212	H	0.226548	0.448747	0.299921
213	C	0.07544	0.473383	0.194509
214	H	0.08303	0.495731	0.173831
215	H	0.041784	0.484748	0.204355
216	H	0.071566	0.43728	0.186907
217	C	0.397936	0.145564	0.511129
218	C	0.355733	0.126071	0.522883
219	C	0.348958	0.116754	0.555517
220	C	0.382247	0.132308	0.577798
221	C	0.424768	0.153968	0.566341
222	C	0.431319	0.160296	0.533296
223	H	0.333496	0.110214	0.007394
224	N	0.371054	0.12677	0.609331
225	C	0.410289	0.138305	0.978895
226	C	0.376888	0.13948	0.954527
227	C	0.387006	0.125502	0.923096
228	C	0.43208	0.10471	0.916601
229	C	0.964939	0.101331	0.941675
230	C	0.454869	0.120074	0.971597
231	N	0.947373	0.090765	0.887212
232	H	0.478119	0.113652	0.489514
233	H	0.430939	0.098394	0.8682
234	H	0.979035	0.079661	0.883346
235	H	0.389463	0.140651	0.625611
236	H	0.340642	0.115075	0.616454
237	H	0.462763	0.172934	0.524908
238	H	0.343971	0.151343	0.959947
239	C	0.428448	0.181318	0.760952
240	C	0.470234	0.201175	0.7719
241	C	0.976205	0.20972	0.804392
242	C	0.442683	0.193285	0.827243
243	C	0.400679	0.171311	0.816488
244	C	0.394838	0.165497	0.783604
245	H	0.492406	0.217691	0.755903
246	N	0.953023	0.198467	0.858607
247	C	0.416413	0.188888	0.72881
248	C	0.449908	0.18729	0.703884
249	C	0.439531	0.200391	0.672248
250	C	0.394485	0.221048	0.666005
251	C	0.361674	0.22509	0.691647
252	C	0.371896	0.207181	0.72194
253	N	0.379231	0.234395	0.636519
254	H	0.348624	0.213692	0.740179
255	H	0.396065	0.227166	0.617414
256	H	0.347604	0.245475	0.632881
257	H	0.434148	0.184688	0.875292
258	H	0.983091	0.210432	0.865361
259	H	0.363721	0.152577	0.775699
260	H	0.482739	0.175158	0.708936
261	C	0.179077	0.396534	0.636205
262	C	0.198731	0.354459	0.647695
263	C	0.208217	0.348357	0.680193
264	C	0.192754	0.381983	0.702588
265	C	0.170615	0.424125	0.691367
266	C	0.163875	0.429998	0.658462
267	H	0.214989	0.332337	0.631999
268	N	0.198782	0.371395	0.73405
269	C	0.187084	0.40904	0.603922
270	C	0.186213	0.375894	0.579417
271	C	0.200198	0.386584	0.547771
272	C	0.220953	0.431772	0.541153
273	C	0.224172	0.964266	0.566374
274	C	0.205403	0.453684	0.596572
275	N	0.235046	0.947509	0.511624
276	H	0.211511	0.476735	0.614537
277	H	0.228137	0.43116	0.992596
278	H	0.246246	0.97922	0.507763
279	H	0.185371	0.390145	0.750592
280	H	0.211013	0.341316	0.74118
281	H	0.151058	0.461252	0.650112
282	H	0.174252	0.342924	0.584832
283	C	0.144864	0.427647	0.885835
284	C	0.125441	0.469792	0.896945
285	C	0.11672	0.976265	0.929553
286	C	0.132925	0.44296	0.95228
287	C	0.154486	0.400594	0.941352
288	C	0.160145	0.394131	0.908397
289	H	0.108988	0.491891	0.881211
290	N	0.127843	0.953839	0.983666
291	C	0.137309	0.415593	0.853843
292	C	0.139053	0.449199	0.82894
293	C	0.125578	0.439246	0.79759
294	C	0.104706	0.394323	0.791692
295	C	0.100694	0.361348	0.817334
296	C	0.118975	0.37113	0.847236
297	N	0.091148	0.379381	0.762441
298	H	0.11231	0.347774	0.865523
299	H	0.098807	0.396128	0.743241
300	H	0.08002	0.347806	0.758955
301	H	0.141722	0.435156	0.50015
302	H	0.116191	0.984148	0.99042
303	H	0.172739	0.362749	0.900466
304	H	0.151269	0.481961	0.833826
305	C	0.079757	0.007821	0.936804
306	C	0.033289	0.990875	0.941582
307	C	0.996691	0.023708	0.943605
308	C	0.005037	0.072196	0.94018
309	C	0.051324	0.089288	0.935499
310	H	0.962968	0.011986	0.946903
311	C	0.088196	0.056437	0.933853
312	H	0.121669	0.068039	0.929358
313	C	0.0631	0.13968	0.930865
314	H	0.032568	0.162515	0.93173
315	H	0.080275	0.145012	0.907733
316	H	0.086951	0.150585	0.949387
317	C	0.021414	0.44002	0.943201
318	H	0.034411	0.422586	0.921924
319	H	0.983778	0.433574	0.944937
320	H	0.037261	0.423898	0.964072
321	C	0.245885	0.3174	0.686871
322	C	0.292339	0.33493	0.689123
323	C	0.32931	0.302518	0.691096
324	C	0.321319	0.253846	0.690033
325	C	0.275047	0.236203	0.687756
326	H	0.363002	0.314657	0.692712
327	C	0.237812	0.268644	0.686167
328	H	0.20429	0.256586	0.683498
329	C	0.263569	0.185556	0.685675
330	H	0.294335	0.163025	0.686189
331	H	0.245412	0.179049	0.663518
332	H	0.240691	0.175305	0.705595
333	C	0.303735	0.385909	0.688286
334	H	0.289741	0.402327	0.666859
335	H	0.341339	0.392751	0.688317
336	H	0.288538	0.402738	0.709102
337	C	0.317438	0.079512	0.562801
338	C	0.334466	0.032888	0.566132
339	C	0.301743	0.996082	0.567475
340	C	0.253288	0.004418	0.56477
341	C	0.236102	0.050863	0.561622
342	H	0.313528	0.962275	0.56985
343	C	0.26884	0.087907	0.560585
344	H	0.257193	0.121538	0.55705
345	C	0.185726	0.062716	0.558016
346	H	0.163015	0.032075	0.558184
347	H	0.180682	0.081441	0.535509
348	H	0.174422	0.08519	0.577434
349	C	0.385338	0.021147	0.566973
350	H	0.403193	0.035188	0.545796
351	H	0.391905	0.983495	0.567839
352	H	0.400919	0.036084	0.588025
353	C	0.007499	0.246718	0.811314
354	C	0.990359	0.293049	0.815468
355	C	0.023078	0.329513	0.818199
356	C	0.07169	0.321202	0.816057
357	C	0.088956	0.275061	0.811878
358	H	0.011217	0.363158	0.820971
359	C	0.056195	0.238287	0.809607
360	H	0.067981	0.204914	0.805656
361	C	0.139508	0.263371	0.808409
362	H	0.162317	0.293815	0.809764
363	H	0.145954	0.247139	0.785423
364	H	0.149458	0.238732	0.827207
365	C	0.439489	0.304941	0.815715
366	H	0.423237	0.292513	0.794102
367	H	0.432992	0.342543	0.81697
368	H	0.422218	0.288574	0.836303
369	C	0.361568	0.160544	0.836529
370	C	0.349508	0.113198	0.843794
371	C	0.344103	0.101053	0.876409
372	C	0.352202	0.134922	0.899919
373	C	0.342701	0.182576	0.891232
374	H	0.347473	0.06649	0.882949
375	C	0.347741	0.194758	0.85866
376	H	0.353305	0.229264	0.852662
377	C	0.340597	0.222013	0.914059
378	H	0.313498	0.215034	0.932028
379	H	0.331542	0.255334	0.902631
380	H	0.374256	0.226543	0.925504
381	C	0.354774	0.074837	0.820417
382	H	0.33237	0.081898	0.800136
383	H	0.344391	0.040798	0.830374
384	H	0.391038	0.072149	0.812168
385	C	0.463589	0.163802	0.585897
386	C	0.477259	0.21078	0.591815
387	C	0.482903	0.222959	0.624049
388	C	0.473772	0.189557	0.648534
389	C	0.481142	0.141504	0.640822
390	H	0.48072	0.257653	0.62985
391	C	0.476078	0.129281	0.608618
392	H	0.469429	0.094936	0.603537
393	C	0.481301	0.102333	0.664676
394	H	0.508544	0.108339	0.682021
395	H	0.488873	0.068481	0.653995
396	H	0.447392	0.099544	0.676808
397	C	0.473526	0.249254	0.567691
398	H	0.496177	0.241584	0.547332
399	H	0.484623	0.283029	0.576804
400	H	0.437516	0.252927	0.55977
401	C	0.165049	0.361835	0.961535
402	C	0.212384	0.349884	0.967957
403	C	0.224373	0.34433	0.00034
404	C	0.190379	0.35239	0.524445
405	C	0.142594	0.343709	0.516709
406	H	0.258928	0.347413	0.006271
407	C	0.130621	0.348492	0.484336
408	H	0.096185	0.354236	0.478923
409	C	0.103061	0.342266	0.540292
410	H	0.109422	0.314885	0.558032
411	H	0.069559	0.334049	0.529487
412	H	0.099246	0.375918	0.551946
413	C	0.250841	0.355028	0.943857
414	H	0.243891	0.332471	0.923781
415	H	0.284859	0.344773	0.953219
416	H	0.253504	0.391239	0.935442
417	C	0.161025	0.463435	0.710733
418	C	0.114108	0.477314	0.717689
419	C	0.102129	0.483004	0.750202
420	C	0.135778	0.47402	0.773854
421	C	0.183701	0.481824	0.764996
422	H	0.067499	0.48061	0.756839
423	C	0.195662	0.476455	0.732526
424	H	0.229984	0.469864	0.726661
425	C	0.223097	0.482602	0.787862
426	H	0.216862	0.509769	0.80535
427	H	0.256701	0.4907	0.776312
428	H	0.226548	0.448746	0.799922
429	C	0.07544	0.473386	0.69451
430	H	0.083031	0.495731	0.673831
431	H	0.041784	0.484748	0.704354
432	H	0.071566	0.437279	0.686907
433	C	0.397936	0.645563	0.01113
434	C	0.355733	0.626071	0.022883
435	C	0.348958	0.616753	0.055517
436	C	0.382247	0.632307	0.077799
437	C	0.424768	0.653969	0.06634
438	C	0.431319	0.660297	0.033296
439	H	0.333496	0.610213	0.507394
440	N	0.371054	0.626769	0.10933
441	C	0.410289	0.638305	0.478894
442	C	0.376888	0.639479	0.454526
443	C	0.387006	0.625502	0.423098
444	C	0.43208	0.604711	0.4166
445	C	0.96494	0.601331	0.441674
446	C	0.45487	0.620073	0.471596
447	N	0.947374	0.590766	0.387211
448	H	0.47812	0.613651	0.989515
449	H	0.430939	0.598394	0.368199
450	H	0.979035	0.579661	0.383346
451	H	0.389463	0.640653	0.12561
452	H	0.340641	0.615076	0.116454
453	H	0.462763	0.672935	0.024907
454	H	0.343971	0.651344	0.459947
455	C	0.428448	0.681319	0.260952
456	C	0.470234	0.701176	0.271899
457	C	0.976205	0.709718	0.304393
458	C	0.442683	0.693283	0.327242
459	C	0.400679	0.671312	0.316487
460	C	0.394838	0.665498	0.283603
461	H	0.492406	0.717691	0.255902
462	N	0.953023	0.698466	0.358607
463	C	0.416413	0.688887	0.22881
464	C	0.449908	0.68729	0.203884
465	C	0.439531	0.700391	0.172248
466	C	0.394485	0.721049	0.166005
467	C	0.361674	0.725091	0.191647
468	C	0.371896	0.707179	0.221939
469	N	0.379231	0.734396	0.136519
470	H	0.348624	0.71369	0.240178
471	H	0.396065	0.727166	0.117414
472	H	0.347605	0.745473	0.132881
473	H	0.434148	0.684686	0.375291
474	H	0.983091	0.710431	0.365361
475	H	0.363721	0.652578	0.275698
476	H	0.482739	0.675156	0.208935
477	C	0.179077	0.896533	0.136204
478	C	0.198731	0.854458	0.147694
479	C	0.208217	0.848356	0.180193
480	C	0.192754	0.881982	0.202588
481	C	0.170615	0.924125	0.191368
482	C	0.163875	0.929997	0.158462
483	H	0.214989	0.832337	0.131999
484	N	0.198782	0.871395	0.23405
485	C	0.187084	0.909039	0.103922
486	C	0.186213	0.875897	0.079415
487	C	0.200198	0.886583	0.047772
488	C	0.220953	0.931771	0.041152
489	C	0.224172	0.464265	0.066374
490	C	0.205403	0.953683	0.096571
491	N	0.235046	0.447508	0.011624
492	H	0.211511	0.976735	0.114537
493	H	0.228137	0.931159	0.492598
494	H	0.246246	0.479219	0.007763
495	H	0.185371	0.890144	0.250593
496	H	0.211013	0.841316	0.241179
497	H	0.151058	0.961251	0.150112
498	H	0.174252	0.842923	0.084831
499	C	0.144865	0.927646	0.385835
500	C	0.125441	0.969791	0.396944
501	C	0.116721	0.476264	0.429552
502	C	0.132925	0.942959	0.45228
503	C	0.154486	0.900594	0.441351
504	C	0.160145	0.89413	0.408396
505	H	0.108988	0.99189	0.381211
506	N	0.127843	0.453841	0.483666
507	C	0.137309	0.915592	0.353843
508	C	0.139053	0.949199	0.32894
509	C	0.125578	0.939245	0.297592
510	C	0.104706	0.894325	0.291691
511	C	0.100694	0.861347	0.317333
512	C	0.118976	0.87113	0.347236
513	N	0.091148	0.87938	0.262442
514	H	0.11231	0.847774	0.365525
515	H	0.098807	0.896127	0.24324
516	H	0.08002	0.847806	0.258955
517	H	0.141722	0.935155	0.000151
518	H	0.116192	0.484147	0.49042
519	H	0.172739	0.862748	0.400465
520	H	0.15127	0.98196	0.333825
521	C	0.079757	0.507822	0.436803
522	C	0.033289	0.490874	0.441582
523	C	0.996691	0.523706	0.443605
524	C	0.005037	0.572194	0.440179
525	C	0.051324	0.589287	0.435498
526	H	0.962968	0.511985	0.446902
527	C	0.088196	0.556436	0.433853
528	H	0.121669	0.56804	0.429357
529	C	0.0631	0.639681	0.430867
530	H	0.032568	0.662514	0.431732
531	H	0.080275	0.64501	0.407735
532	H	0.08695	0.650586	0.449387
533	C	0.021414	0.94002	0.443203
534	H	0.034411	0.922585	0.421923
535	H	0.983778	0.933573	0.444936
536	H	0.03726	0.923898	0.464071
537	C	0.245885	0.817398	0.18687
538	C	0.292339	0.834929	0.189123
539	C	0.329309	0.802517	0.191097
540	C	0.321319	0.753844	0.190033
541	C	0.275047	0.736202	0.187756
542	H	0.363002	0.814655	0.192711
543	C	0.237812	0.768644	0.186167
544	H	0.20429	0.756585	0.183497
545	C	0.263569	0.685556	0.185676
546	H	0.294335	0.663025	0.186188
547	H	0.245412	0.679047	0.163517
548	H	0.240691	0.675303	0.205596
549	C	0.303735	0.885909	0.188286
550	H	0.289741	0.902327	0.166858
551	H	0.34134	0.892751	0.188315
552	H	0.288538	0.902737	0.209101
553	C	0.317438	0.579513	0.062802
554	C	0.334466	0.532886	0.066131
555	C	0.301743	0.496084	0.067475
556	C	0.253289	0.504418	0.064769
557	C	0.236102	0.550863	0.061622
558	H	0.313528	0.462274	0.06985
559	C	0.26884	0.587906	0.060585
560	H	0.257193	0.621539	0.057049
561	C	0.185726	0.562717	0.058016
562	H	0.163015	0.532073	0.058185
563	H	0.180682	0.58144	0.03551
564	H	0.174422	0.58519	0.077434
565	C	0.385338	0.521145	0.066972
566	H	0.403193	0.535188	0.045796
567	H	0.391908	0.483494	0.067837
568	H	0.400919	0.536082	0.088024
569	C	0.007499	0.746719	0.311314
570	C	0.990359	0.793049	0.315467
571	C	0.023078	0.829512	0.318201
572	C	0.07169	0.821201	0.316057
573	C	0.088956	0.775061	0.31188
574	H	0.011217	0.863157	0.320973
575	C	0.056195	0.738287	0.309607
576	H	0.067981	0.704913	0.305656
577	C	0.139508	0.76337	0.308409
578	H	0.162317	0.793815	0.309764
579	H	0.145954	0.747139	0.285422
580	H	0.149458	0.738732	0.327206
581	C	0.439489	0.804941	0.315714
582	H	0.423237	0.792511	0.294102
583	H	0.432992	0.842542	0.31697
584	H	0.422218	0.788573	0.336302
585	C	0.361568	0.660542	0.336531
586	C	0.349508	0.613198	0.343793
587	C	0.344103	0.601052	0.376411
588	C	0.352202	0.634923	0.399918
589	C	0.342701	0.682575	0.391231
590	H	0.347473	0.566489	0.382949
591	C	0.347741	0.694758	0.358661
592	H	0.353305	0.729264	0.352663
593	C	0.340596	0.722012	0.414061
594	H	0.313498	0.715033	0.432027
595	H	0.331543	0.755332	0.402631
596	H	0.374256	0.726541	0.425506
597	C	0.354774	0.574837	0.320417
598	H	0.33237	0.581899	0.300138
599	H	0.344391	0.540797	0.330373
600	H	0.391038	0.572149	0.312167
601	C	0.463589	0.663801	0.085896
602	C	0.477259	0.710778	0.091814
603	C	0.482903	0.722959	0.124049
604	C	0.473772	0.689558	0.148532
605	C	0.481142	0.641504	0.14082
606	H	0.48072	0.757654	0.12985
607	C	0.476078	0.62928	0.108618
608	H	0.469429	0.594934	0.103537
609	C	0.481301	0.602331	0.164676
610	H	0.508544	0.608337	0.182022
611	H	0.488873	0.568479	0.153995
612	H	0.447392	0.599544	0.176807
613	C	0.473526	0.749253	0.06769
614	H	0.496177	0.741585	0.047332
615	H	0.484623	0.783028	0.076802
616	H	0.437516	0.752928	0.05977
617	C	0.165049	0.861834	0.461535
618	C	0.212384	0.849884	0.467956
619	C	0.224373	0.84433	0.500341
620	C	0.190379	0.85239	0.024444
621	C	0.142594	0.843708	0.016709
622	H	0.258928	0.847413	0.506272
623	C	0.130621	0.848493	0.984337
624	H	0.096185	0.854234	0.978924
625	C	0.103061	0.842265	0.040291
626	H	0.109422	0.814886	0.058032
627	H	0.069559	0.834047	0.029486
628	H	0.099246	0.875921	0.051945
629	C	0.250841	0.855027	0.443857
630	H	0.243891	0.83247	0.42378
631	H	0.284859	0.844772	0.453219
632	H	0.253504	0.891239	0.435441
633	C	0.161025	0.963435	0.210732
634	C	0.114109	0.977313	0.217688
635	C	0.102129	0.983003	0.250204
636	C	0.135777	0.974019	0.273854
637	C	0.183701	0.981823	0.264996
638	H	0.067499	0.98061	0.256841
639	C	0.195662	0.976455	0.232526
640	H	0.229984	0.969864	0.226661
641	C	0.223097	0.982601	0.287861
642	H	0.216862	0.00977	0.305349
643	H	0.256701	0.990699	0.276312
644	H	0.226548	0.948745	0.299921
645	C	0.07544	0.973385	0.194509
646	H	0.08303	0.99573	0.173831
647	H	0.041784	0.984747	0.204355
648	H	0.071566	0.937278	0.186907
649	C	0.397936	0.645566	0.511129
650	C	0.355734	0.62607	0.522883
651	C	0.348959	0.616753	0.555517
652	C	0.382247	0.632306	0.577798
653	C	0.424769	0.653968	0.566341
654	C	0.431319	0.660296	0.533296
655	H	0.333496	0.610214	0.007394
656	N	0.371054	0.626768	0.609331
657	C	0.410289	0.638305	0.978895
658	C	0.376889	0.639481	0.954527
659	C	0.387006	0.625501	0.923096
660	C	0.43208	0.60471	0.916601
661	C	0.96494	0.60133	0.941675
662	C	0.45487	0.620072	0.971597
663	N	0.947374	0.590765	0.887212
664	H	0.478119	0.613652	0.489514
665	H	0.430939	0.598394	0.8682
666	H	0.979035	0.57966	0.883346
667	H	0.389464	0.640652	0.625611
668	H	0.340642	0.615075	0.616454
669	H	0.462763	0.672934	0.524906
670	H	0.343971	0.651343	0.959947
671	C	0.428448	0.681319	0.760952
672	C	0.470235	0.701175	0.7719
673	C	0.976205	0.709718	0.804392
674	C	0.442684	0.693286	0.827243
675	C	0.400679	0.671311	0.816488
676	C	0.394839	0.665497	0.783604
677	H	0.492406	0.717691	0.755903
678	N	0.953023	0.698465	0.858607
679	C	0.416413	0.688886	0.72881
680	C	0.449909	0.687289	0.703884
681	C	0.439532	0.70039	0.672248
682	C	0.394485	0.721048	0.666005
683	C	0.36167	0.72509	0.691647
684	C	0.371896	0.707182	0.72194
685	N	0.379231	0.734395	0.636519
686	H	0.348624	0.713693	0.740179
687	H	0.396065	0.727165	0.617414
688	H	0.347605	0.745476	0.632881
689	H	0.434148	0.684689	0.875292
690	H	0.983091	0.71043	0.865361
691	H	0.363721	0.652577	0.775699
692	H	0.482739	0.675159	0.708936
693	C	0.179077	0.896532	0.636205
694	C	0.198731	0.854457	0.647695
695	C	0.208216	0.848355	0.680193
696	C	0.192754	0.881981	0.702588
697	C	0.170615	0.924124	0.691367
698	C	0.163875	0.929997	0.658462
699	H	0.214989	0.832336	0.631999
700	N	0.198782	0.871397	0.73405
701	C	0.187084	0.909042	0.603922
702	C	0.186213	0.875896	0.579417
703	C	0.200198	0.886586	0.547771
704	C	0.220953	0.93177	0.541153
705	C	0.224172	0.464264	0.566374
706	C	0.205404	0.953682	0.596572
707	N	0.235046	0.44751	0.511624
708	H	0.211511	0.976734	0.614537
709	H	0.228137	0.931158	0.992596
710	H	0.246246	0.479218	0.507763
711	H	0.185371	0.890144	0.750592
712	H	0.211013	0.841315	0.74118
713	H	0.151058	0.961251	0.650112
714	H	0.174252	0.842922	0.584832
715	C	0.144864	0.927649	0.885835
716	C	0.125442	0.969794	0.896945
717	C	0.11672	0.476263	0.929553
718	C	0.132925	0.942959	0.95228
719	C	0.154486	0.900596	0.941352
720	C	0.160145	0.894133	0.908397
721	H	0.108988	0.991889	0.881211
722	N	0.127843	0.453841	0.983666
723	C	0.137309	0.915592	0.853843
724	C	0.139053	0.949198	0.82894
725	C	0.125578	0.939244	0.79759
726	C	0.104707	0.894325	0.791692
727	C	0.100694	0.86135	0.817334
728	C	0.118975	0.871129	0.847236
729	N	0.091148	0.879379	0.762441
730	H	0.11231	0.847773	0.865523
731	H	0.098807	0.896126	0.743241
732	H	0.08002	0.847805	0.758955
733	H	0.141722	0.935154	0.50015
734	H	0.116191	0.484146	0.99042
735	H	0.172739	0.862747	0.900466
736	H	0.151269	0.981963	0.833826
737	C	0.079757	0.507821	0.936804
738	C	0.033289	0.490874	0.941582
739	C	0.996691	0.523709	0.943605
740	C	0.005037	0.572197	0.94018
741	C	0.051324	0.589289	0.935499
742	H	0.962969	0.511984	0.946903
743	C	0.088196	0.556435	0.933853
744	H	0.121669	0.568039	0.929358
745	C	0.0631	0.63968	0.930865
746	H	0.032568	0.662513	0.93173
747	H	0.080275	0.645012	0.907733
748	H	0.086951	0.650585	0.949387
749	C	0.021414	0.940019	0.943201
750	H	0.034411	0.922588	0.921924
751	H	0.983778	0.933576	0.944937
752	H	0.037261	0.923897	0.964072
753	C	0.245885	0.817401	0.686871
754	C	0.292339	0.834929	0.689123
755	C	0.32931	0.802517	0.691096
756	C	0.321319	0.753847	0.690033
757	C	0.275047	0.736204	0.687756
758	H	0.363002	0.814658	0.692712
759	C	0.237812	0.768643	0.686167
760	H	0.20429	0.756584	0.683498
761	C	0.263569	0.685555	0.685675
762	H	0.294335	0.663024	0.686189
763	H	0.245412	0.67905	0.663518
764	H	0.240691	0.675306	0.705595
765	C	0.303735	0.885908	0.688286
766	H	0.289741	0.902326	0.666859
767	H	0.341339	0.89275	0.688317
768	H	0.288538	0.902737	0.709102
769	C	0.317438	0.579512	0.562801
770	C	0.334466	0.532888	0.566132
771	C	0.301743	0.496084	0.567475
772	C	0.253288	0.504417	0.56477
773	C	0.236102	0.550862	0.561622
774	H	0.313528	0.462277	0.56985
775	C	0.26884	0.587905	0.560585
776	H	0.257193	0.621538	0.55705
777	C	0.185726	0.562716	0.558016
778	H	0.163015	0.532073	0.558184
779	H	0.180682	0.58144	0.535509
780	H	0.174422	0.58519	0.577434
781	C	0.385339	0.521148	0.566973
782	H	0.403194	0.535187	0.545796
783	H	0.391905	0.483496	0.567839
784	H	0.40092	0.536085	0.588023
785	C	0.007499	0.746718	0.811314
786	C	0.990359	0.793048	0.815468
787	C	0.023078	0.829512	0.818199
788	C	0.07169	0.821201	0.816057
789	C	0.088956	0.77506	0.811878
790	H	0.011217	0.863156	0.820971
791	C	0.056195	0.738286	0.809607
792	H	0.067981	0.704916	0.805656
793	C	0.139508	0.763369	0.808409
794	H	0.162318	0.793815	0.809764
795	H	0.145954	0.747138	0.785423
796	H	0.149458	0.738732	0.827207
797	C	0.439489	0.80494	0.815715
798	H	0.423238	0.792514	0.794102
799	H	0.432992	0.842545	0.81697
800	H	0.422218	0.788575	0.836303
801	C	0.361568	0.660545	0.836529
802	C	0.349508	0.613197	0.843794
803	C	0.344103	0.601052	0.876409
804	C	0.352202	0.634922	0.899919
805	C	0.342701	0.682574	0.891232
806	H	0.347474	0.566488	0.882949
807	C	0.347738	0.694757	0.85866
808	H	0.353305	0.729264	0.852662
809	C	0.340597	0.722011	0.914059
810	H	0.313498	0.715032	0.932028
811	H	0.331542	0.755335	0.902631
812	H	0.374257	0.726544	0.925504
813	C	0.354774	0.574836	0.820417
814	H	0.332371	0.581898	0.800136
815	H	0.344391	0.5408	0.830374
816	H	0.391038	0.572148	0.812168
817	C	0.463589	0.6638	0.585897
818	C	0.47726	0.710781	0.591815
819	C	0.4829	0.722959	0.624049
820	C	0.473772	0.689558	0.648534
821	C	0.481142	0.641503	0.640822
822	H	0.48072	0.757653	0.62985
823	C	0.476075	0.62928	0.608618
824	H	0.469429	0.594937	0.603537
825	C	0.481301	0.602334	0.664676
826	H	0.508544	0.60834	0.682021
827	H	0.488873	0.568479	0.653995
828	H	0.447392	0.599544	0.676808
829	C	0.473526	0.749253	0.567691
830	H	0.496177	0.741584	0.547332
831	H	0.484623	0.783031	0.576804
832	H	0.437516	0.752927	0.55977
833	C	0.165049	0.861833	0.961535
834	C	0.212384	0.849883	0.967957
835	C	0.224373	0.844331	0.00034
836	C	0.190379	0.852392	0.524445
837	C	0.142594	0.843707	0.516709
838	H	0.258928	0.847414	0.006271
839	C	0.130621	0.848491	0.484336
840	H	0.096185	0.854234	0.478923
841	C	0.103061	0.842264	0.540292
842	H	0.109422	0.814885	0.558032
843	H	0.069559	0.83405	0.529487
844	H	0.099246	0.87592	0.551946
845	C	0.250841	0.855026	0.943857
846	H	0.243891	0.832473	0.923781
847	H	0.284859	0.844772	0.953219
848	H	0.253504	0.891238	0.935442
849	C	0.161025	0.963434	0.710733
850	C	0.114108	0.977313	0.717689
851	C	0.102129	0.983002	0.750202
852	C	0.135777	0.974018	0.773854
853	C	0.183701	0.981822	0.764996
854	H	0.067499	0.980612	0.756839
855	C	0.195662	0.976454	0.732526
856	H	0.229984	0.969866	0.726661
857	C	0.223097	0.9826	0.787862
858	H	0.216862	0.00977	0.80535
859	H	0.256701	0.990698	0.776312
860	H	0.226548	0.948745	0.799922
861	C	0.07544	0.973385	0.69451
862	H	0.083031	0.995733	0.673831
863	H	0.041784	0.984746	0.704354
864	H	0.071566	0.937277	0.686907
865	C	0.897935	0.145564	0.01113
866	C	0.855732	0.126071	0.022883
867	C	0.848957	0.116754	0.055517
868	C	0.882249	0.132308	0.077799
869	C	0.924767	0.153968	0.06634
870	C	0.931321	0.160296	0.033296
871	H	0.833494	0.110215	0.507394
872	N	0.871053	0.12677	0.10933
873	C	0.910291	0.138305	0.478894
874	C	0.876887	0.13948	0.454526
875	C	0.887008	0.125502	0.423098
876	C	0.932079	0.10471	0.4166
877	C	0.464937	0.10133	0.441674
878	C	0.954872	0.120074	0.471596
879	N	0.447374	0.090765	0.387211
880	H	0.978118	0.113652	0.989515
881	H	0.930941	0.098394	0.368199
882	H	0.479036	0.079661	0.383346
883	H	0.889462	0.140651	0.12561
884	H	0.84064	0.115075	0.116454
885	H	0.962765	0.172934	0.024907
886	H	0.843969	0.151343	0.459947
887	C	0.928446	0.181319	0.260952
888	C	0.970233	0.201175	0.271899
889	C	0.476206	0.20972	0.304393
890	C	0.942682	0.193285	0.327242
891	C	0.900678	0.171311	0.316487
892	C	0.89484	0.165497	0.283603
893	H	0.992404	0.217691	0.255902
894	N	0.453024	0.198467	0.358607
895	C	0.916412	0.188888	0.22881
896	C	0.949907	0.18729	0.203884
897	C	0.93953	0.200392	0.172248
898	C	0.894484	0.221048	0.166005
899	C	0.861672	0.22509	0.191647
900	C	0.871895	0.207181	0.221939
901	N	0.879233	0.234395	0.136519
902	H	0.848626	0.213692	0.240178
903	H	0.896067	0.227166	0.117414
904	H	0.847607	0.245475	0.132881
905	H	0.934146	0.184688	0.375291
906	H	0.483092	0.210432	0.365361
907	H	0.86372	0.152577	0.275698
908	H	0.982738	0.175158	0.208935
909	C	0.679076	0.396535	0.136204
910	C	0.698731	0.35446	0.147694
911	C	0.708216	0.348358	0.180193
912	C	0.692752	0.38198	0.202588
913	C	0.670614	0.424126	0.191368
914	C	0.663875	0.429999	0.158462
915	H	0.714989	0.332337	0.131999
916	N	0.698782	0.371396	0.23405
917	C	0.687085	0.40904	0.103922
918	C	0.686211	0.375895	0.079415
919	C	0.700199	0.386584	0.047772
920	C	0.720953	0.431772	0.041152
921	C	0.724171	0.964263	0.066374
922	C	0.705403	0.453685	0.096571
923	N	0.735047	0.94751	0.011624
924	H	0.711512	0.476736	0.114537
925	H	0.728137	0.43116	0.492598
926	H	0.746245	0.979218	0.007763
927	H	0.685369	0.390146	0.250593
928	H	0.711012	0.341315	0.241179
929	H	0.651056	0.461253	0.150112
930	H	0.674252	0.342922	0.084831
931	C	0.644863	0.427648	0.385835
932	C	0.625442	0.469792	0.396944
933	C	0.616722	0.976262	0.429552
934	C	0.632924	0.442957	0.45228
935	C	0.654486	0.400595	0.441351
936	C	0.660145	0.394131	0.408396
937	H	0.608987	0.491892	0.381211
938	N	0.627842	0.95384	0.483666
939	C	0.63731	0.415594	0.353843
940	C	0.639054	0.4492	0.32894
941	C	0.625578	0.439243	0.297592
942	C	0.604707	0.394323	0.291691
943	C	0.600692	0.361348	0.317333
944	C	0.618974	0.371131	0.347236
945	N	0.591148	0.379381	0.262442
946	H	0.612308	0.347775	0.365525
947	H	0.598809	0.396128	0.24324
948	H	0.580021	0.347807	0.258955
949	H	0.641721	0.435156	0.000151
950	H	0.616192	0.984145	0.49042
951	H	0.672738	0.362749	0.400465
952	H	0.65127	0.481962	0.333825
953	C	0.579759	0.007821	0.436803
954	C	0.533289	0.990873	0.441582
955	C	0.496692	0.023708	0.443605
956	C	0.505038	0.072196	0.440179
957	C	0.551324	0.089288	0.435498
958	H	0.462969	0.011986	0.446902
959	C	0.588195	0.056437	0.433853
960	H	0.621669	0.068039	0.429357
961	C	0.563102	0.13968	0.430867
962	H	0.532567	0.162515	0.431732
963	H	0.580274	0.145012	0.407735
964	H	0.58695	0.150585	0.449387
965	C	0.521413	0.440021	0.443203
966	H	0.534412	0.422587	0.421923
967	H	0.483779	0.433574	0.444936
968	H	0.537261	0.423899	0.464071
969	C	0.745884	0.3174	0.18687
970	C	0.792339	0.334929	0.189123
971	C	0.829309	0.302518	0.191097
972	C	0.821318	0.253846	0.190033
973	C	0.775048	0.236203	0.187756
974	H	0.863001	0.314657	0.192711
975	C	0.737811	0.268644	0.186167
976	H	0.704289	0.256586	0.183497
977	C	0.763569	0.185556	0.185676
978	H	0.794335	0.163025	0.186188
979	H	0.745414	0.179049	0.163517
980	H	0.74069	0.175305	0.205596
981	C	0.803735	0.38591	0.188286
982	H	0.789741	0.402328	0.166858
983	H	0.841341	0.392752	0.188315
984	H	0.788538	0.402739	0.209101
985	C	0.817437	0.079512	0.062802
986	C	0.834465	0.032888	0.066131
987	C	0.801743	0.996083	0.067475
988	C	0.75329	0.004418	0.064769
989	C	0.7361	0.050863	0.061622
990	H	0.813529	0.962276	0.06985
991	C	0.76884	0.087907	0.060585
992	H	0.757192	0.121538	0.057049
993	C	0.685727	0.062717	0.058016
994	H	0.663015	0.032075	0.058185
995	H	0.680681	0.081441	0.03551
996	H	0.674423	0.08519	0.077435
997	C	0.885337	0.021147	0.066972
998	H	0.903192	0.035188	0.045796
999	H	0.891907	0.983496	0.067837
1000	H	0.900921	0.036084	0.088024
1001	C	0.5075	0.246718	0.311314
1002	C	0.49036	0.293049	0.315467
1003	C	0.523077	0.329513	0.318201
1004	C	0.571689	0.321202	0.316057
1005	C	0.588956	0.275061	0.31188
1006	H	0.511216	0.363158	0.320973
1007	C	0.556194	0.238287	0.309607
1008	H	0.567982	0.204915	0.305656
1009	C	0.639509	0.263371	0.308409
1010	H	0.662318	0.293815	0.309764
1011	H	0.645955	0.247139	0.285422
1012	H	0.649458	0.238732	0.327206
1013	C	0.939488	0.304941	0.315714
1014	H	0.923236	0.292513	0.294102
1015	H	0.932994	0.342544	0.31697
1016	H	0.922217	0.288574	0.336302
1017	C	0.861567	0.160544	0.336531
1018	C	0.849507	0.113198	0.343793
1019	C	0.844105	0.101053	0.376411
1020	C	0.8522	0.134922	0.399918
1021	C	0.8427	0.182576	0.391231
1022	H	0.847472	0.06649	0.382949
1023	C	0.84774	0.194758	0.358661
1024	H	0.853307	0.229264	0.352663
1025	C	0.840596	0.222013	0.414061
1026	H	0.8135	0.215034	0.432027
1027	H	0.831544	0.255334	0.402631
1028	H	0.874258	0.226543	0.425506
1029	C	0.854772	0.074837	0.320417
1030	H	0.832369	0.081898	0.300138
1031	H	0.84439	0.040798	0.330373
1032	H	0.891037	0.07215	0.312167
1033	C	0.963591	0.163802	0.085896
1034	C	0.977258	0.21078	0.091814
1035	C	0.982902	0.222959	0.124049
1036	C	0.973774	0.189558	0.148532
1037	C	0.98114	0.141504	0.14082
1038	H	0.980719	0.257653	0.12985
1039	C	0.976077	0.129281	0.108618
1040	H	0.969427	0.094936	0.103537
1041	C	0.981303	0.102333	0.164676
1042	H	0.008544	0.10834	0.182022
1043	H	0.988871	0.068481	0.153995
1044	H	0.94739	0.099544	0.176807
1045	C	0.973528	0.249254	0.06769
1046	H	0.996175	0.241584	0.047332
1047	H	0.984625	0.283029	0.076802
1048	H	0.937518	0.252927	0.05977
1049	C	0.665048	0.361832	0.461535
1050	C	0.712384	0.349885	0.467956
1051	C	0.724374	0.344332	0.500341
1052	C	0.690381	0.352391	0.024444
1053	C	0.642595	0.343708	0.016709
1054	H	0.758929	0.347414	0.506272
1055	C	0.630619	0.348491	0.984337
1056	H	0.596185	0.354235	0.978924
1057	C	0.603061	0.342264	0.040291
1058	H	0.609421	0.314885	0.058032
1059	H	0.56956	0.334049	0.029486
1060	H	0.599244	0.375919	0.051945
1061	C	0.75084	0.355025	0.443857
1062	H	0.743892	0.332472	0.42378
1063	H	0.78486	0.344774	0.453219
1064	H	0.753503	0.39124	0.435441
1065	C	0.661026	0.463436	0.210732
1066	C	0.614109	0.477311	0.217688
1067	C	0.602129	0.483004	0.250204
1068	C	0.635778	0.474017	0.273854
1069	C	0.683702	0.481825	0.264996
1070	H	0.567501	0.480611	0.256841
1071	C	0.695663	0.476456	0.232526
1072	H	0.729983	0.469865	0.226661
1073	C	0.723099	0.482599	0.287861
1074	H	0.716863	0.50977	0.305349
1075	H	0.7567	0.4907	0.276312
1076	H	0.726548	0.448747	0.299921
1077	C	0.575441	0.473383	0.194509
1078	H	0.583031	0.495731	0.173831
1079	H	0.541785	0.484748	0.204355
1080	H	0.571566	0.43728	0.186907
1081	C	0.897935	0.145564	0.511129
1082	C	0.855732	0.126071	0.522883
1083	C	0.848957	0.116754	0.555517
1084	C	0.882246	0.132308	0.577798
1085	C	0.924767	0.153968	0.566341
1086	C	0.931321	0.160296	0.533296
1087	H	0.833498	0.110214	0.007394
1088	N	0.871053	0.12677	0.609331
1089	C	0.910291	0.138305	0.978895
1090	C	0.876887	0.13948	0.954527
1091	C	0.887008	0.125502	0.923096
1092	C	0.932079	0.10471	0.916601
1093	C	0.464937	0.101331	0.941675
1094	C	0.954872	0.120074	0.971597
1095	N	0.447375	0.090765	0.887212
1096	H	0.978118	0.113652	0.489514
1097	H	0.930941	0.098394	0.8682
1098	H	0.479036	0.079661	0.883346
1099	H	0.889462	0.140651	0.625611
1100	H	0.840641	0.115075	0.616454
1101	H	0.962765	0.172934	0.524908
1102	H	0.84397	0.151343	0.959947
1103	C	0.928446	0.181318	0.760952
1104	C	0.970233	0.201175	0.7719
1105	C	0.476206	0.20972	0.804392
1106	C	0.942682	0.193285	0.827243
1107	C	0.900678	0.171311	0.816488
1108	C	0.894837	0.165497	0.783604
1109	H	0.992405	0.217691	0.755903
1110	N	0.453024	0.198467	0.858607
1111	C	0.916412	0.188888	0.72881
1112	C	0.949907	0.18729	0.703884
1113	C	0.93953	0.200391	0.672248
1114	C	0.894484	0.221048	0.666005
1115	C	0.861673	0.22509	0.691647
1116	C	0.871895	0.207181	0.72194
1117	N	0.879229	0.234395	0.636519
1118	H	0.848626	0.213692	0.740179
1119	H	0.896067	0.227166	0.617414
1120	H	0.847603	0.245475	0.632881
1121	H	0.934147	0.184688	0.875292
1122	H	0.483092	0.210432	0.865361
1123	H	0.86372	0.152577	0.775699
1124	H	0.982738	0.175158	0.708936
1125	C	0.679077	0.396534	0.636205
1126	C	0.698731	0.354459	0.647695
1127	C	0.708216	0.348357	0.680193
1128	C	0.692753	0.381983	0.702588
1129	C	0.670614	0.424125	0.691367
1130	C	0.663875	0.429998	0.658462
1131	H	0.714989	0.332337	0.631999
1132	N	0.698783	0.371395	0.73405
1133	C	0.687086	0.40904	0.603922
1134	C	0.686212	0.375894	0.579417
1135	C	0.700199	0.386584	0.547771
1136	C	0.720954	0.431772	0.541153
1137	C	0.724171	0.964266	0.566374
1138	C	0.705403	0.453684	0.596572
1139	N	0.735044	0.947509	0.511624
1140	H	0.711512	0.476735	0.614537
1141	H	0.728138	0.43116	0.992596
1142	H	0.746245	0.97922	0.507763
1143	H	0.68537	0.390145	0.750592
1144	H	0.711012	0.341316	0.74118
1145	H	0.651056	0.461252	0.650112
1146	H	0.674252	0.342924	0.584832
1147	C	0.644863	0.427647	0.885835
1148	C	0.625443	0.469792	0.896945
1149	C	0.616719	0.976265	0.929553
1150	C	0.632925	0.44296	0.95228
1151	C	0.654487	0.400594	0.941352
1152	C	0.660145	0.394131	0.908397
1153	H	0.608987	0.491891	0.881211
1154	N	0.627842	0.953839	0.983666
1155	C	0.63731	0.415593	0.853843
1156	C	0.639055	0.449199	0.82894
1157	C	0.625579	0.439246	0.79759
1158	C	0.604708	0.394323	0.791692
1159	C	0.600692	0.361348	0.817334
1160	C	0.618974	0.37113	0.847236
1161	N	0.591148	0.379381	0.762441
1162	H	0.612308	0.347774	0.865523
1163	H	0.598805	0.396128	0.743241
1164	H	0.580021	0.347806	0.758955
1165	H	0.641721	0.435156	0.50015
1166	H	0.616193	0.984148	0.99042
1167	H	0.672738	0.362749	0.900466
1168	H	0.65127	0.481961	0.833826
1169	C	0.579759	0.007821	0.936804
1170	C	0.533289	0.990875	0.941582
1171	C	0.496693	0.023708	0.943605
1172	C	0.505038	0.072196	0.94018
1173	C	0.551324	0.089288	0.935499
1174	H	0.462969	0.011986	0.946903
1175	C	0.588196	0.056437	0.933853
1176	H	0.621669	0.068039	0.929358
1177	C	0.563098	0.13968	0.930865
1178	H	0.532568	0.162515	0.93173
1179	H	0.580274	0.145012	0.907733
1180	H	0.586951	0.150585	0.949387
1181	C	0.521413	0.44002	0.943201
1182	H	0.534413	0.422586	0.921924
1183	H	0.483779	0.433574	0.944937
1184	H	0.537261	0.423898	0.964072
1185	C	0.745884	0.3174	0.686871
1186	C	0.792339	0.33493	0.689123
1187	C	0.829309	0.302518	0.691096
1188	C	0.821318	0.253846	0.690033
1189	C	0.775048	0.236203	0.687756
1190	H	0.863001	0.314657	0.692712
1191	C	0.737811	0.268644	0.686167
1192	H	0.704289	0.256586	0.683498
1193	C	0.763569	0.185556	0.685675
1194	H	0.794336	0.163025	0.686189
1195	H	0.745414	0.179049	0.663518
1196	H	0.740691	0.175305	0.705595
1197	C	0.803735	0.385909	0.688286
1198	H	0.789741	0.402327	0.666859
1199	H	0.841341	0.392751	0.688317
1200	H	0.788538	0.402738	0.709102
1201	C	0.817438	0.079512	0.562801
1202	C	0.834466	0.032888	0.566132
1203	C	0.801744	0.996082	0.567475
1204	C	0.75329	0.004418	0.56477
1205	C	0.7361	0.050863	0.561622
1206	H	0.813529	0.962275	0.56985
1207	C	0.768841	0.087907	0.560585
1208	H	0.757193	0.121538	0.55705
1209	C	0.685727	0.062716	0.558016
1210	H	0.663015	0.032075	0.558184
1211	H	0.680681	0.081441	0.535509
1212	H	0.674423	0.08519	0.577434
1213	C	0.885337	0.021147	0.566973
1214	H	0.903192	0.035188	0.545796
1215	H	0.891907	0.983495	0.567839
1216	H	0.900922	0.036084	0.588025
1217	C	0.5075	0.246718	0.811314
1218	C	0.49036	0.293049	0.815468
1219	C	0.523077	0.329513	0.818199
1220	C	0.571689	0.321202	0.816057
1221	C	0.588956	0.275061	0.811878
1222	H	0.511217	0.363158	0.820971
1223	C	0.556194	0.238287	0.809607
1224	H	0.567979	0.204914	0.805656
1225	C	0.63951	0.263371	0.808409
1226	H	0.662318	0.293815	0.809764
1227	H	0.645952	0.247139	0.785423
1228	H	0.649458	0.238732	0.827207
1229	C	0.939488	0.304941	0.815715
1230	H	0.923236	0.292513	0.794102
1231	H	0.932994	0.342543	0.81697
1232	H	0.922217	0.288574	0.836303
1233	C	0.861567	0.160544	0.836529
1234	C	0.849507	0.113198	0.843794
1235	C	0.844101	0.101053	0.876409
1236	C	0.8522	0.134922	0.899919
1237	C	0.8427	0.182576	0.891232
1238	H	0.847472	0.06649	0.882949
1239	C	0.84774	0.194758	0.85866
1240	H	0.853307	0.229264	0.852662
1241	C	0.840596	0.222013	0.914059
1242	H	0.813496	0.215034	0.932028
1243	H	0.831544	0.255334	0.902631
1244	H	0.874259	0.226543	0.925504
1245	C	0.854773	0.074837	0.820417
1246	H	0.832369	0.081898	0.800136
1247	H	0.84439	0.040798	0.830374
1248	H	0.891037	0.072149	0.812168
1249	C	0.963591	0.163802	0.585897
1250	C	0.977258	0.21078	0.591815
1251	C	0.982902	0.222959	0.624049
1252	C	0.973774	0.189557	0.648534
1253	C	0.98114	0.141504	0.640822
1254	H	0.980719	0.257653	0.62985
1255	C	0.976077	0.129281	0.608618
1256	H	0.969427	0.094936	0.603537
1257	C	0.9813	0.102333	0.664676
1258	H	0.008544	0.108339	0.682021
1259	H	0.988871	0.068481	0.653995
1260	H	0.94739	0.099544	0.676808
1261	C	0.973528	0.249254	0.567691
1262	H	0.996176	0.241584	0.547332
1263	H	0.984625	0.283029	0.576804
1264	H	0.937518	0.252927	0.55977
1265	C	0.665048	0.361835	0.961535
1266	C	0.712384	0.349884	0.967957
1267	C	0.724374	0.34433	0.00034
1268	C	0.690381	0.35239	0.524445
1269	C	0.642595	0.343709	0.516709
1270	H	0.758928	0.347413	0.006271
1271	C	0.630623	0.348492	0.484336
1272	H	0.596184	0.354236	0.478923
1273	C	0.603061	0.342266	0.540292
1274	H	0.609421	0.314885	0.558032
1275	H	0.56956	0.334049	0.529487
1276	H	0.599245	0.375918	0.551946
1277	C	0.750841	0.355028	0.943857
1278	H	0.743892	0.332471	0.923781
1279	H	0.784857	0.344773	0.953219
1280	H	0.753503	0.391239	0.935442
1281	C	0.661023	0.463435	0.710733
1282	C	0.614109	0.477314	0.717689
1283	C	0.602129	0.483004	0.750202
1284	C	0.635778	0.47402	0.773854
1285	C	0.683702	0.481824	0.764996
1286	H	0.567501	0.48061	0.756839
1287	C	0.69566	0.476455	0.732526
1288	H	0.729983	0.469864	0.726661
1289	C	0.723099	0.482602	0.787862
1290	H	0.716863	0.509769	0.80535
1291	H	0.7567	0.4907	0.776312
1292	H	0.726548	0.448746	0.799922
1293	C	0.575441	0.473386	0.69451
1294	H	0.583031	0.495731	0.673831
1295	H	0.541785	0.484748	0.704354
1296	H	0.571567	0.437279	0.686907
1297	C	0.897935	0.645563	0.01113
1298	C	0.855732	0.626071	0.022883
1299	C	0.848957	0.616753	0.055517
1300	C	0.882246	0.632307	0.077799
1301	C	0.924767	0.653969	0.06634
1302	C	0.931321	0.660297	0.033296
1303	H	0.833495	0.610213	0.507394
1304	N	0.871053	0.626769	0.10933
1305	C	0.910291	0.638305	0.478894
1306	C	0.876887	0.639479	0.454526
1307	C	0.887008	0.625502	0.423098
1308	C	0.932079	0.604711	0.4166
1309	C	0.464937	0.601331	0.441674
1310	C	0.954872	0.620073	0.471596
1311	N	0.447375	0.590766	0.387211
1312	H	0.978119	0.613651	0.989515
1313	H	0.930941	0.598394	0.368199
1314	H	0.479036	0.579661	0.383346
1315	H	0.889462	0.640653	0.12561
1316	H	0.840641	0.615076	0.116454
1317	H	0.962765	0.672935	0.024907
1318	H	0.84397	0.651344	0.459947
1319	C	0.928446	0.681319	0.260952
1320	C	0.970233	0.701176	0.271899
1321	C	0.476206	0.709718	0.304393
1322	C	0.942682	0.693283	0.327242
1323	C	0.900678	0.671312	0.316487
1324	C	0.894837	0.665498	0.283603
1325	H	0.992405	0.717691	0.255902
1326	N	0.453024	0.698466	0.358607
1327	C	0.916412	0.688887	0.22881
1328	C	0.949907	0.68729	0.203884
1329	C	0.93953	0.700391	0.172248
1330	C	0.894484	0.721049	0.166005
1331	C	0.861673	0.725091	0.191647
1332	C	0.871895	0.707179	0.221939
1333	N	0.879229	0.734396	0.136519
1334	H	0.848626	0.71369	0.240178
1335	H	0.896067	0.727166	0.117414
1336	H	0.847603	0.745473	0.132881
1337	H	0.934147	0.684686	0.375291
1338	H	0.483092	0.710431	0.365361
1339	H	0.86372	0.652578	0.275698
1340	H	0.982738	0.675156	0.208935
1341	C	0.679077	0.896533	0.136204
1342	C	0.698731	0.854458	0.147694
1343	C	0.708216	0.848356	0.180193
1344	C	0.692753	0.881982	0.202588
1345	C	0.670614	0.924125	0.191368
1346	C	0.663875	0.929997	0.158462
1347	H	0.714989	0.832337	0.131999
1348	N	0.698783	0.871395	0.23405
1349	C	0.687086	0.909039	0.103922
1350	C	0.686212	0.875897	0.079415
1351	C	0.700199	0.886583	0.047772
1352	C	0.720954	0.931771	0.041152
1353	C	0.724171	0.464265	0.066374
1354	C	0.705403	0.953683	0.096571
1355	N	0.735047	0.447508	0.011624
1356	H	0.711512	0.976735	0.114537
1357	H	0.728138	0.931159	0.492598
1358	H	0.746245	0.479219	0.007763
1359	H	0.68537	0.890144	0.250593
1360	H	0.711012	0.841316	0.241179
1361	H	0.651057	0.961251	0.150112
1362	H	0.674252	0.842923	0.084831
1363	C	0.644863	0.927646	0.385835
1364	C	0.625443	0.969791	0.396944
1365	C	0.616722	0.476264	0.429552
1366	C	0.632925	0.942959	0.45228
1367	C	0.654487	0.900594	0.441351
1368	C	0.660145	0.89413	0.408396
1369	H	0.608987	0.99189	0.381211
1370	N	0.627842	0.453841	0.483666
1371	C	0.63731	0.915592	0.353843
1372	C	0.639055	0.949199	0.32894
1373	C	0.625579	0.939245	0.297592
1374	C	0.604708	0.894325	0.291691
1375	C	0.600693	0.861347	0.317333
1376	C	0.618974	0.87113	0.347236
1377	N	0.591148	0.87938	0.262442
1378	H	0.612308	0.847774	0.365525
1379	H	0.598805	0.896127	0.24324
1380	H	0.580021	0.847806	0.258955
1381	H	0.641721	0.935155	0.000151
1382	H	0.616192	0.484147	0.49042
1383	H	0.672738	0.862748	0.400465
1384	H	0.651271	0.98196	0.333825
1385	C	0.579759	0.507822	0.436803
1386	C	0.533289	0.490874	0.441582
1387	C	0.496693	0.523706	0.443605
1388	C	0.505038	0.572194	0.440179
1389	C	0.551325	0.589287	0.435498
1390	H	0.462969	0.511985	0.446902
1391	C	0.588196	0.556436	0.433853
1392	H	0.621669	0.56804	0.429357
1393	C	0.563098	0.639681	0.430867
1394	H	0.532568	0.662514	0.431732
1395	H	0.580274	0.64501	0.407735
1396	H	0.586951	0.650586	0.449387
1397	C	0.521413	0.94002	0.443203
1398	H	0.534413	0.922585	0.421923
1399	H	0.483779	0.933573	0.444936
1400	H	0.537261	0.923898	0.464071
1401	C	0.745884	0.817398	0.18687
1402	C	0.792339	0.834929	0.189123
1403	C	0.829309	0.802517	0.191097
1404	C	0.821318	0.753844	0.190033
1405	C	0.775049	0.736202	0.187756
1406	H	0.863001	0.814655	0.192711
1407	C	0.737811	0.768644	0.186167
1408	H	0.704289	0.756585	0.183497
1409	C	0.763569	0.685556	0.185676
1410	H	0.794336	0.663025	0.186188
1411	H	0.745414	0.679047	0.163517
1412	H	0.740691	0.675303	0.205596
1413	C	0.803735	0.885909	0.188286
1414	H	0.789741	0.902327	0.166858
1415	H	0.841342	0.892751	0.188315
1416	H	0.788538	0.902737	0.209101
1417	C	0.817438	0.579513	0.062802
1418	C	0.834466	0.532886	0.066131
1419	C	0.801743	0.496084	0.067475
1420	C	0.75329	0.504418	0.064769
1421	C	0.7361	0.550863	0.061622
1422	H	0.813529	0.462274	0.06985
1423	C	0.768841	0.587906	0.060585
1424	H	0.757193	0.621539	0.057049
1425	C	0.685727	0.562717	0.058016
1426	H	0.663015	0.532073	0.058185
1427	H	0.680681	0.58144	0.03551
1428	H	0.674423	0.58519	0.077434
1429	C	0.885337	0.521145	0.066972
1430	H	0.903192	0.535188	0.045796
1431	H	0.891907	0.483494	0.067837
1432	H	0.900922	0.536082	0.088024
1433	C	0.5075	0.746719	0.311314
1434	C	0.49036	0.793049	0.315467
1435	C	0.523077	0.829512	0.318201
1436	C	0.57169	0.821201	0.316057
1437	C	0.588956	0.775061	0.31188
1438	H	0.511217	0.863157	0.320973
1439	C	0.556194	0.738287	0.309607
1440	H	0.567979	0.704913	0.305656
1441	C	0.63951	0.76337	0.308409
1442	H	0.662318	0.793815	0.309764
1443	H	0.645952	0.747139	0.285422
1444	H	0.649458	0.738732	0.327206
1445	C	0.939488	0.804941	0.315714
1446	H	0.923236	0.792511	0.294102
1447	H	0.932994	0.842542	0.31697
1448	H	0.922217	0.788573	0.336302
1449	C	0.861567	0.660542	0.336531
1450	C	0.849507	0.613198	0.343793
1451	C	0.844101	0.601052	0.376411
1452	C	0.852201	0.634923	0.399918
1453	C	0.8427	0.682575	0.391231
1454	H	0.847472	0.566489	0.382949
1455	C	0.84774	0.694758	0.358661
1456	H	0.853307	0.729264	0.352663
1457	C	0.840596	0.722012	0.414061
1458	H	0.813497	0.715033	0.432027
1459	H	0.831544	0.755332	0.402631
1460	H	0.874259	0.726541	0.425506
1461	C	0.854773	0.574837	0.320417
1462	H	0.832369	0.581899	0.300138
1463	H	0.84439	0.540797	0.330373
1464	H	0.891037	0.572149	0.312167
1465	C	0.963591	0.663801	0.085896
1466	C	0.977258	0.710778	0.091814
1467	C	0.982902	0.722959	0.124049
1468	C	0.973774	0.689558	0.148532
1469	C	0.981141	0.641504	0.14082
1470	H	0.980719	0.757654	0.12985
1471	C	0.976077	0.62928	0.108618
1472	H	0.969427	0.594934	0.103537
1473	C	0.9813	0.602331	0.164676
1474	H	0.008544	0.608337	0.182022
1475	H	0.988871	0.568479	0.153995
1476	H	0.947391	0.599544	0.176807
1477	C	0.973528	0.749253	0.06769
1478	H	0.996176	0.741585	0.047332
1479	H	0.984625	0.783028	0.076802
1480	H	0.937518	0.752928	0.05977
1481	C	0.665048	0.861834	0.461535
1482	C	0.712384	0.849884	0.467956
1483	C	0.724371	0.84433	0.500341
1484	C	0.690381	0.85239	0.024444
1485	C	0.642595	0.843708	0.016709
1486	H	0.758929	0.847413	0.506272
1487	C	0.63062	0.848493	0.984337
1488	H	0.596185	0.854234	0.978924
1489	C	0.603061	0.842265	0.040291
1490	H	0.609421	0.814886	0.058032
1491	H	0.56956	0.834047	0.029486
1492	H	0.599245	0.875921	0.051945
1493	C	0.750841	0.855027	0.443857
1494	H	0.743892	0.83247	0.42378
1495	H	0.784857	0.844772	0.453219
1496	H	0.753503	0.891239	0.435441
1497	C	0.661023	0.963435	0.210732
1498	C	0.61411	0.977313	0.217688
1499	C	0.602129	0.983003	0.250204
1500	C	0.635778	0.974019	0.273854
1501	C	0.683702	0.981823	0.264996
1502	H	0.567501	0.98061	0.256841
1503	C	0.69566	0.976455	0.232526
1504	H	0.729983	0.969864	0.226661
1505	C	0.723096	0.982601	0.287861
1506	H	0.716862	0.00977	0.305349
1507	H	0.7567	0.990699	0.276312
1508	H	0.726548	0.948745	0.299921
1509	C	0.575441	0.973385	0.194509
1510	H	0.583031	0.99573	0.173831
1511	H	0.541785	0.984747	0.204355
1512	H	0.571567	0.937278	0.186907
1513	C	0.897935	0.645566	0.511129
1514	C	0.855733	0.62607	0.522883
1515	C	0.848958	0.616753	0.555517
1516	C	0.882246	0.632306	0.577798
1517	C	0.924768	0.653968	0.566341
1518	C	0.931318	0.660296	0.533296
1519	H	0.833494	0.610214	0.007394
1520	N	0.871053	0.626768	0.609331
1521	C	0.910292	0.638305	0.978895
1522	C	0.876888	0.639481	0.954527
1523	C	0.887008	0.625501	0.923096
1524	C	0.932079	0.60471	0.916601
1525	C	0.464937	0.60133	0.941675
1526	C	0.954872	0.620072	0.971597
1527	N	0.447375	0.590765	0.887212
1528	H	0.978118	0.613652	0.489514
1529	H	0.930938	0.598394	0.8682
1530	H	0.479037	0.57966	0.883346
1531	H	0.889462	0.640652	0.625611
1532	H	0.840641	0.615075	0.616454
1533	H	0.962762	0.672934	0.524906
1534	H	0.84397	0.651343	0.959947
1535	C	0.928447	0.681319	0.760952
1536	C	0.970234	0.701175	0.7719
1537	C	0.476206	0.709718	0.804392
1538	C	0.942682	0.693286	0.827243
1539	C	0.900678	0.671311	0.816488
1540	C	0.894837	0.665497	0.783604
1541	H	0.992405	0.717691	0.755903
1542	N	0.453024	0.698465	0.858607
1543	C	0.916412	0.688886	0.72881
1544	C	0.949908	0.687289	0.703884
1545	C	0.93953	0.70039	0.672248
1546	C	0.894484	0.721048	0.666005
1547	C	0.861673	0.72509	0.691647
1548	C	0.871895	0.707182	0.72194
1549	N	0.87923	0.734395	0.636519
1550	H	0.848623	0.713693	0.740179
1551	H	0.896067	0.727165	0.617414
1552	H	0.847604	0.745476	0.632881
1553	H	0.934147	0.684689	0.875292
1554	H	0.483092	0.71043	0.865361
1555	H	0.86372	0.652577	0.775699
1556	H	0.982738	0.675159	0.708936
1557	C	0.679077	0.896532	0.636205
1558	C	0.698731	0.854457	0.647695
1559	C	0.708216	0.848355	0.680193
1560	C	0.692753	0.881981	0.702588
1561	C	0.670615	0.924124	0.691367
1562	C	0.663876	0.929997	0.658462
1563	H	0.71499	0.832336	0.631999
1564	N	0.698783	0.871397	0.73405
1565	C	0.687086	0.909042	0.603922
1566	C	0.686212	0.875896	0.579417
1567	C	0.700199	0.886586	0.547771
1568	C	0.720954	0.93177	0.541153
1569	C	0.724171	0.464264	0.566374
1570	C	0.705403	0.953682	0.596572
1571	N	0.735047	0.44751	0.511624
1572	H	0.711513	0.976734	0.614537
1573	H	0.728138	0.931158	0.992596
1574	H	0.746245	0.479218	0.507763
1575	H	0.68537	0.890144	0.750592
1576	H	0.711012	0.841315	0.74118
1577	H	0.651057	0.961251	0.650112
1578	H	0.674252	0.842922	0.584832
1579	C	0.644863	0.927649	0.885835
1580	C	0.625443	0.969794	0.896945
1581	C	0.616722	0.476263	0.929553
1582	C	0.632925	0.942959	0.95228
1583	C	0.654487	0.900596	0.941352
1584	C	0.660145	0.894133	0.908397
1585	H	0.608988	0.991889	0.881211
1586	N	0.627842	0.453841	0.983666
1587	C	0.63731	0.915592	0.853843
1588	C	0.639055	0.949198	0.82894
1589	C	0.625579	0.939244	0.79759
1590	C	0.604708	0.894325	0.791692
1591	C	0.600693	0.86135	0.817334
1592	C	0.618975	0.871129	0.847236
1593	N	0.591149	0.879379	0.762441
1594	H	0.612309	0.847773	0.865523
1595	H	0.598806	0.896126	0.743241
1596	H	0.580018	0.847805	0.758955
1597	H	0.641722	0.935154	0.50015
1598	H	0.616192	0.484146	0.99042
1599	H	0.672738	0.862747	0.900466
1600	H	0.651271	0.981963	0.833826
1601	C	0.579756	0.507821	0.936804
1602	C	0.533289	0.490874	0.941582
1603	C	0.496693	0.523709	0.943605
1604	C	0.505039	0.572197	0.94018
1605	C	0.551325	0.589289	0.935499
1606	H	0.46297	0.511984	0.946903
1607	C	0.588196	0.556435	0.933853
1608	H	0.621669	0.568039	0.929358
1609	C	0.563099	0.63968	0.930865
1610	H	0.532568	0.662513	0.93173
1611	H	0.580274	0.645012	0.907733
1612	H	0.586951	0.650585	0.949387
1613	C	0.521414	0.940019	0.943201
1614	H	0.534413	0.922588	0.921924
1615	H	0.483779	0.933576	0.944937
1616	H	0.537261	0.923897	0.964072
1617	C	0.745884	0.817401	0.686871
1618	C	0.792339	0.834929	0.689123
1619	C	0.82931	0.802517	0.691096
1620	C	0.821318	0.753847	0.690033
1621	C	0.775049	0.736204	0.687756
1622	H	0.863001	0.814658	0.692712
1623	C	0.737811	0.768643	0.686167
1624	H	0.70429	0.756584	0.683498
1625	C	0.76357	0.685555	0.685675
1626	H	0.794336	0.663024	0.686189
1627	H	0.745411	0.67905	0.663518
1628	H	0.740691	0.675306	0.705595
1629	C	0.803736	0.885908	0.688286
1630	H	0.789742	0.902326	0.666859
1631	H	0.841342	0.89275	0.688317
1632	H	0.788538	0.902737	0.709102
1633	C	0.817438	0.579512	0.562801
1634	C	0.834466	0.532888	0.566132
1635	C	0.801743	0.496084	0.567475
1636	C	0.75329	0.504417	0.56477
1637	C	0.736101	0.550862	0.561622
1638	H	0.813529	0.462277	0.56985
1639	C	0.768841	0.587905	0.560585
1640	H	0.757193	0.621538	0.55705
1641	C	0.685727	0.562716	0.558016
1642	H	0.663015	0.532073	0.558184
1643	H	0.680682	0.58144	0.535509
1644	H	0.674424	0.58519	0.577434
1645	C	0.885337	0.521148	0.566973
1646	H	0.903192	0.535187	0.545796
1647	H	0.891907	0.483496	0.567839
1648	H	0.900922	0.536085	0.588023
1649	C	0.507501	0.746718	0.811314
1650	C	0.49036	0.793048	0.815468
1651	C	0.523077	0.829512	0.818199
1652	C	0.57169	0.821201	0.816057
1653	C	0.588956	0.77506	0.811878
1654	H	0.511217	0.863156	0.820971
1655	C	0.556194	0.738286	0.809607
1656	H	0.567979	0.704916	0.805656
1657	C	0.63951	0.763369	0.808409
1658	H	0.662318	0.793815	0.809764
1659	H	0.645952	0.747138	0.785423
1660	H	0.649458	0.738732	0.827207
1661	C	0.939488	0.80494	0.815715
1662	H	0.923236	0.792514	0.794102
1663	H	0.932995	0.842545	0.81697
1664	H	0.922217	0.788575	0.836303
1665	C	0.861567	0.660545	0.836529
1666	C	0.849507	0.613197	0.843794
1667	C	0.844102	0.601052	0.876409
1668	C	0.852201	0.634922	0.899919
1669	C	0.8427	0.682574	0.891232
1670	H	0.847473	0.566488	0.882949
1671	C	0.847741	0.694757	0.85866
1672	H	0.853304	0.729264	0.852662
1673	C	0.840596	0.722011	0.914059
1674	H	0.813497	0.715032	0.932028
1675	H	0.831544	0.755335	0.902631
1676	H	0.874259	0.726544	0.925504
1677	C	0.854773	0.574836	0.820417
1678	H	0.832369	0.581898	0.800136
1679	H	0.84439	0.5408	0.830374
1680	H	0.891037	0.572148	0.812168
1681	C	0.963588	0.6638	0.585897
1682	C	0.977259	0.710781	0.591815
1683	C	0.982902	0.722959	0.624049
1684	C	0.973775	0.689558	0.648534
1685	C	0.981141	0.641503	0.640822
1686	H	0.980719	0.757653	0.62985
1687	C	0.976077	0.62928	0.608618
1688	H	0.969428	0.594937	0.603537
1689	C	0.9813	0.602334	0.664676
1690	H	0.008544	0.60834	0.682021
1691	H	0.988872	0.568479	0.653995
1692	H	0.947391	0.599544	0.676808
1693	C	0.973528	0.749253	0.567691
1694	H	0.996176	0.741584	0.547332
1695	H	0.984622	0.783031	0.576804
1696	H	0.937515	0.752927	0.55977
1697	C	0.665048	0.861833	0.961535
1698	C	0.712385	0.849883	0.967957
1699	C	0.724374	0.844331	0.00034
1700	C	0.690378	0.852392	0.524445
1701	C	0.642596	0.843707	0.516709
1702	H	0.758929	0.847414	0.006271
1703	C	0.630623	0.848491	0.484336
1704	H	0.596185	0.854234	0.478923
1705	C	0.603062	0.842264	0.540292
1706	H	0.609422	0.814885	0.558032
1707	H	0.569557	0.83405	0.529487
1708	H	0.599245	0.87592	0.551946
1709	C	0.750841	0.855026	0.943857
1710	H	0.743892	0.832473	0.923781
1711	H	0.784857	0.844772	0.953219
1712	H	0.753503	0.891238	0.935442
1713	C	0.661023	0.963434	0.710733
1714	C	0.61411	0.977313	0.717689
1715	C	0.60213	0.983002	0.750202
1716	C	0.635778	0.974018	0.773854
1717	C	0.683702	0.981822	0.764996
1718	H	0.567498	0.980612	0.756839
1719	C	0.69566	0.976454	0.732526
1720	H	0.729983	0.969866	0.726661
1721	C	0.723096	0.9826	0.787862
1722	H	0.716863	0.00977	0.80535
1723	H	0.756701	0.990698	0.776312
1724	H	0.726548	0.948745	0.799922
1725	C	0.575441	0.973385	0.69451
1726	H	0.583032	0.995733	0.673831
1727	H	0.541782	0.984746	0.704354
1728	H	0.571567	0.937277	0.686907
