data_C576H240_2018-02-15_12:17:10
#******************************************
#
# CIF file created by Zeo++
# Zeo++ is an open source package to
# analyze microporous materials
#
#*******************************************

_cell_length_a		26.8503   
_cell_length_b		26.8568   
_cell_length_c		26.8293   
_cell_angle_alpha		89.963   
_cell_angle_beta		89.9815   
_cell_angle_gamma		90.0138   

_symmetry_space_group_name_H-M		'P1'
_symmetry_Int_Tables_number		1
_symmetry_cell_setting		Triclinic

loop_
_symmetry_equiv_pos_as_xyz
'+x,+y,+z'

loop_
_atom_site_label
_atom_site_type_symbol
_atom_site_fract_x
_atom_site_fract_y
_atom_site_fract_z
1	C	0.193809	0.19387	0.129252
2	C	0.214937	0.150792	0.15082
3	C	0.193738	0.129204	0.193904
4	C	0.1507	0.150772	0.215113
5	C	0.129184	0.193867	0.193959
6	C	0.150801	0.215083	0.150889
7	H	0.134816	0.134883	0.246027
8	H	0.134956	0.245985	0.135012
9	H	0.245816	0.134919	0.134929
10	C	0.885245	0.885189	0.129072
11	C	0.864083	0.928226	0.150661
12	C	0.885318	0.949839	0.19368
13	C	0.928441	0.928334	0.214784
14	C	0.949979	0.885267	0.193633
15	C	0.928324	0.864037	0.150631
16	H	0.94436	0.944231	0.245645
17	H	0.944187	0.833162	0.13475
18	H	0.833176	0.94408	0.134805
19	C	0.885469	0.193902	0.950028
20	C	0.864218	0.150935	0.928384
21	C	0.885411	0.129359	0.885315
22	C	0.928566	0.150845	0.864211
23	C	0.950193	0.193835	0.885434
24	C	0.928583	0.215027	0.928481
25	H	0.94446	0.134971	0.83332
26	H	0.944492	0.245872	0.944385
27	H	0.83329	0.135094	0.944247
28	C	0.193585	0.885308	0.949812
29	C	0.214742	0.928391	0.928242
30	C	0.193588	0.94997	0.885147
31	C	0.15056	0.928391	0.863939
32	C	0.129004	0.885305	0.885106
33	C	0.150578	0.864098	0.928182
34	H	0.134699	0.944281	0.833025
35	H	0.134712	0.833194	0.944061
36	H	0.245612	0.944272	0.944139
37	C	0.194043	0.193745	0.949938
38	C	0.151019	0.214973	0.928354
39	C	0.129358	0.193802	0.885326
40	C	0.150829	0.1507	0.864178
41	C	0.193887	0.129093	0.885319
42	C	0.215124	0.150654	0.928369
43	H	0.134902	0.134841	0.833305
44	H	0.245994	0.134746	0.944239
45	H	0.135196	0.245872	0.944228
46	C	0.885256	0.885379	0.949771
47	C	0.928199	0.864128	0.928059
48	C	0.949857	0.88542	0.88505
49	C	0.928452	0.928637	0.864036
50	C	0.885456	0.950242	0.885304
51	C	0.864227	0.928581	0.928339
52	H	0.944361	0.944567	0.833156
53	H	0.833384	0.944469	0.944284
54	H	0.943986	0.83315	0.943848
55	C	0.193838	0.885521	0.12912
56	C	0.15076	0.864346	0.150696
57	C	0.129156	0.885494	0.193769
58	C	0.150731	0.928527	0.214965
59	C	0.193843	0.950081	0.19383
60	C	0.21503	0.928535	0.150739
61	H	0.134838	0.944373	0.245871
62	H	0.245933	0.944407	0.134862
63	H	0.134884	0.833482	0.134803
64	C	0.885454	0.193846	0.129325
65	C	0.928413	0.215073	0.151037
66	C	0.950029	0.193771	0.194044
67	C	0.928567	0.150557	0.215053
68	C	0.885563	0.128972	0.193785
69	C	0.86438	0.15065	0.150752
70	H	0.944441	0.134616	0.24593
71	H	0.833532	0.134774	0.134809
72	H	0.944235	0.246043	0.135245
73	C	0.193618	0.693854	0.629002
74	C	0.214836	0.65086	0.650654
75	C	0.193673	0.6293	0.693775
76	C	0.150592	0.650833	0.714938
77	C	0.128988	0.693838	0.693689
78	C	0.15055	0.715	0.650572
79	H	0.134725	0.634967	0.745874
80	H	0.134663	0.745859	0.634649
81	H	0.245743	0.63502	0.634787
82	C	0.885429	0.385295	0.629274
83	C	0.864267	0.428339	0.650848
84	C	0.885476	0.449952	0.693883
85	C	0.928565	0.428428	0.715035
86	C	0.950141	0.385387	0.693868
87	C	0.928522	0.364174	0.650837
88	H	0.944462	0.444326	0.745904
89	H	0.944401	0.333307	0.634958
90	H	0.833363	0.444189	0.634981
91	C	0.88514	0.693902	0.449758
92	C	0.863971	0.650855	0.428188
93	C	0.885264	0.629193	0.385217
94	C	0.928408	0.650676	0.364094
95	C	0.949961	0.693739	0.385232
96	C	0.92828	0.715002	0.428218
97	H	0.944336	0.634756	0.333243
98	H	0.944156	0.745878	0.444085
99	H	0.833043	0.635012	0.444044
100	C	0.193904	0.385221	0.449993
101	C	0.215068	0.428285	0.428397
102	C	0.193824	0.449928	0.385381
103	C	0.150733	0.428401	0.364244
104	C	0.129198	0.385307	0.38541
105	C	0.15083	0.364066	0.428442
106	H	0.134834	0.444313	0.333363
107	H	0.134969	0.333165	0.444331
108	H	0.245971	0.444144	0.444253
109	C	0.193838	0.693839	0.449702
110	C	0.150757	0.714928	0.428091
111	C	0.129136	0.693635	0.385105
112	C	0.150688	0.650527	0.364042
113	C	0.193795	0.629052	0.38522
114	C	0.215009	0.650758	0.428207
115	H	0.134798	0.634581	0.333193
116	H	0.245907	0.634934	0.444111
117	H	0.134874	0.745822	0.443914
118	C	0.885408	0.385493	0.449963
119	C	0.928479	0.364353	0.428393
120	C	0.950039	0.385508	0.385269
121	C	0.928452	0.428532	0.364039
122	C	0.88537	0.450077	0.385205
123	C	0.864201	0.428501	0.428319
124	H	0.94432	0.444399	0.333106
125	H	0.833302	0.444349	0.444193
126	H	0.944358	0.333486	0.444305
127	C	0.194073	0.385355	0.629278
128	C	0.15101	0.364182	0.650889
129	C	0.129302	0.385481	0.693834
130	C	0.150752	0.428644	0.714875
131	C	0.19384	0.450187	0.693696
132	C	0.215143	0.428507	0.650736
133	H	0.134809	0.444572	0.745714
134	H	0.246038	0.444379	0.634843
135	H	0.135196	0.333238	0.635089
136	C	0.885168	0.693805	0.629054
137	C	0.928179	0.71506	0.650632
138	C	0.949843	0.693864	0.693667
139	C	0.928403	0.650718	0.714823
140	C	0.885388	0.629072	0.693655
141	C	0.864127	0.650655	0.650609
142	H	0.944326	0.634847	0.745714
143	H	0.833257	0.634737	0.634753
144	H	0.943975	0.746001	0.634757
145	C	0.693798	0.19398	0.629222
146	C	0.714946	0.15091	0.650796
147	C	0.693788	0.129331	0.693909
148	C	0.650774	0.150915	0.715151
149	C	0.629212	0.193989	0.693987
150	C	0.650795	0.215185	0.650885
151	H	0.634909	0.135032	0.746076
152	H	0.634934	0.246078	0.635007
153	H	0.745819	0.135039	0.634891
154	C	0.385209	0.885191	0.629151
155	C	0.364026	0.928231	0.650725
156	C	0.385278	0.949911	0.693708
157	C	0.42842	0.928443	0.714811
158	C	0.449992	0.88538	0.693681
159	C	0.428325	0.864106	0.650702
160	H	0.444335	0.944374	0.745658
161	H	0.44421	0.833234	0.634835
162	H	0.333104	0.944055	0.634869
163	C	0.385402	0.193891	0.449944
164	C	0.364146	0.150908	0.428326
165	C	0.385359	0.129272	0.385295
166	C	0.428525	0.150736	0.364177
167	C	0.450163	0.193735	0.385369
168	C	0.428542	0.21497	0.428393
169	H	0.444419	0.134832	0.333303
170	H	0.444458	0.245819	0.444279
171	H	0.333213	0.135085	0.444193
172	C	0.693606	0.88521	0.449836
173	C	0.714766	0.928293	0.42827
174	C	0.693646	0.949861	0.38515
175	C	0.650653	0.928245	0.363897
176	C	0.629076	0.885166	0.385064
177	C	0.650621	0.863981	0.42817
178	H	0.634809	0.944127	0.332973
179	H	0.63475	0.833081	0.444044
180	H	0.745621	0.944185	0.444186
181	C	0.694098	0.193797	0.449874
182	C	0.651042	0.214953	0.42827
183	C	0.629364	0.19371	0.38528
184	C	0.650861	0.150589	0.36419
185	C	0.693936	0.129023	0.385343
186	C	0.715182	0.150675	0.428352
187	H	0.634934	0.134683	0.333339
188	H	0.746063	0.134803	0.444234
189	H	0.635201	0.245861	0.444111
190	C	0.385326	0.885332	0.449821
191	C	0.428281	0.864093	0.42811
192	C	0.449898	0.885326	0.385049
193	C	0.42844	0.928502	0.36399
194	C	0.385463	0.950129	0.385273
195	C	0.364266	0.928497	0.428345
196	H	0.444323	0.944406	0.333084
197	H	0.333422	0.94439	0.444283
198	H	0.444086	0.833133	0.443925
199	C	0.693924	0.885477	0.629181
200	C	0.650829	0.864359	0.650788
201	C	0.629204	0.885577	0.693819
202	C	0.650786	0.928644	0.714949
203	C	0.693911	0.950168	0.693793
204	C	0.715104	0.928536	0.650743
205	H	0.634892	0.944534	0.74583
206	H	0.746014	0.944379	0.63485
207	H	0.634946	0.833479	0.634936
208	C	0.385496	0.193881	0.629271
209	C	0.428448	0.215117	0.650993
210	C	0.450026	0.193871	0.69405
211	C	0.428527	0.150688	0.715095
212	C	0.385549	0.129067	0.693804
213	C	0.364402	0.15071	0.650732
214	H	0.444379	0.134774	0.745994
215	H	0.333559	0.134825	0.634787
216	H	0.444281	0.246072	0.635182
217	C	0.693715	0.693812	0.129019
218	C	0.714934	0.650836	0.150708
219	C	0.693701	0.629242	0.193778
220	C	0.65056	0.650732	0.214861
221	C	0.628972	0.69374	0.193599
222	C	0.6506	0.714928	0.150525
223	H	0.634655	0.634854	0.245768
224	H	0.634721	0.745784	0.134587
225	H	0.745873	0.635011	0.134883
226	C	0.385361	0.385238	0.129257
227	C	0.36421	0.428278	0.150852
228	C	0.385445	0.44988	0.193876
229	C	0.428558	0.428356	0.214989
230	C	0.450107	0.385304	0.193816
231	C	0.428447	0.364092	0.150804
232	H	0.444477	0.44425	0.245849
233	H	0.444315	0.333223	0.134912
234	H	0.333298	0.444128	0.135004
235	C	0.385074	0.693975	0.949774
236	C	0.36392	0.650927	0.92819
237	C	0.385232	0.629277	0.885226
238	C	0.428394	0.650767	0.864137
239	C	0.449921	0.693845	0.885278
240	C	0.428199	0.715104	0.928242
241	H	0.444344	0.634851	0.833294
242	H	0.44406	0.745987	0.944124
243	H	0.332978	0.635084	0.944023
244	C	0.694005	0.385248	0.949976
245	C	0.71517	0.428298	0.928343
246	C	0.693856	0.449974	0.885378
247	C	0.650703	0.428488	0.864323
248	C	0.629193	0.385383	0.885498
249	C	0.650887	0.364118	0.928481
250	H	0.634765	0.444411	0.833469
251	H	0.635038	0.333221	0.944389
252	H	0.746103	0.444142	0.944157
253	C	0.693849	0.693833	0.949715
254	C	0.650759	0.714948	0.928145
255	C	0.629107	0.693692	0.885155
256	C	0.650637	0.650596	0.864051
257	C	0.693765	0.629105	0.885181
258	C	0.715015	0.650778	0.928164
259	H	0.634726	0.634672	0.833204
260	H	0.745925	0.634947	0.944034
261	H	0.634892	0.745835	0.944005
262	C	0.385283	0.385479	0.949938
263	C	0.428383	0.364368	0.928395
264	C	0.450011	0.38558	0.88533
265	C	0.428449	0.428637	0.864133
266	C	0.385327	0.450141	0.885244
267	C	0.364096	0.428506	0.928302
268	H	0.444358	0.444534	0.833234
269	H	0.333174	0.444332	0.944154
270	H	0.444251	0.33349	0.944299
271	C	0.694088	0.385346	0.129268
272	C	0.651018	0.364145	0.150836
273	C	0.629278	0.385412	0.193781
274	C	0.650704	0.428568	0.214861
275	C	0.693814	0.450126	0.193736
276	C	0.715152	0.428472	0.150782
277	H	0.634735	0.444474	0.245699
278	H	0.746062	0.444351	0.134921
279	H	0.635221	0.333209	0.135003
280	C	0.385037	0.69383	0.129079
281	C	0.428074	0.715062	0.150635
282	C	0.449809	0.693803	0.193603
283	C	0.428403	0.65062	0.214726
284	C	0.385336	0.629019	0.193611
285	C	0.364015	0.650661	0.150625
286	H	0.444363	0.63472	0.245578
287	H	0.333124	0.634765	0.134789
288	H	0.443859	0.746014	0.134768
289	C	0.308488	0.30845	0.039596
290	C	0.327374	0.327408	0.993577
291	C	0.364773	0.36494	0.993786
292	C	0.382946	0.383013	0.039598
293	C	0.36485	0.364779	0.085411
294	C	0.327383	0.327316	0.085618
295	C	0.308087	0.308052	0.948556
296	C	0.308035	0.307941	0.130641
297	H	0.409984	0.410079	0.039597
298	C	0.270779	0.270692	0.039593
299	C	0.251945	0.251759	0.993574
300	C	0.21455	0.214221	0.993782
301	C	0.196323	0.196125	0.039597
302	C	0.214349	0.214359	0.085402
303	C	0.251832	0.251802	0.085615
304	C	0.271304	0.271127	0.948552
305	H	0.169275	0.169067	0.039606
306	C	0.271156	0.271116	0.13064
307	H	0.258895	0.25864	0.914753
308	H	0.320554	0.320543	0.914753
309	H	0.258675	0.25864	0.16444
310	H	0.320493	0.320378	0.164441
311	C	0.770678	0.770658	0.03938
312	C	0.7518	0.751786	0.993357
313	C	0.714324	0.714332	0.993559
314	C	0.696124	0.696197	0.039367
315	C	0.714255	0.714311	0.085175
316	C	0.75175	0.751743	0.085398
317	C	0.771163	0.771159	0.948336
318	C	0.771062	0.771057	0.130427
319	H	0.669057	0.669157	0.039369
320	C	0.808415	0.808388	0.039393
321	C	0.827329	0.827324	0.993376
322	C	0.864749	0.864827	0.993607
323	C	0.882867	0.88295	0.039417
324	C	0.864752	0.864728	0.085223
325	C	0.827294	0.827258	0.08542
326	C	0.808006	0.808021	0.948347
327	H	0.909909	0.910019	0.039421
328	C	0.807927	0.807893	0.130438
329	H	0.82047	0.820524	0.914552
330	H	0.758706	0.758726	0.914537
331	H	0.820366	0.820341	0.164241
332	H	0.758568	0.758584	0.164225
333	C	0.77095	0.308498	0.039652
334	C	0.752068	0.327404	0.085667
335	C	0.714625	0.364867	0.08544
336	C	0.696436	0.382957	0.039625
337	C	0.714541	0.364782	0.993823
338	C	0.752032	0.327367	0.993626
339	C	0.771408	0.308074	0.130697
340	C	0.771364	0.308037	0.948604
341	H	0.669374	0.40999	0.039615
342	C	0.808672	0.270775	0.039663
343	C	0.827576	0.251883	0.085688
344	C	0.864997	0.214394	0.085482
345	C	0.883104	0.196224	0.039677
346	C	0.864976	0.214387	0.993868
347	C	0.827544	0.251865	0.993648
348	C	0.808245	0.27122	0.130707
349	H	0.910129	0.169157	0.039681
350	C	0.808215	0.271204	0.948615
351	H	0.8207	0.25875	0.16451
352	H	0.758954	0.320541	0.164492
353	H	0.820666	0.258737	0.91482
354	H	0.75889	0.320486	0.914802
355	C	0.308216	0.770777	0.039445
356	C	0.327112	0.751855	0.085462
357	C	0.364493	0.714326	0.085245
358	C	0.382627	0.696208	0.039427
359	C	0.364541	0.714425	0.993618
360	C	0.327092	0.751883	0.993421
361	C	0.307824	0.771221	0.130488
362	C	0.307747	0.77123	0.948399
363	H	0.409663	0.669153	0.039419
364	C	0.27052	0.808529	0.039453
365	C	0.251705	0.827489	0.085476
366	C	0.214325	0.865022	0.085273
367	C	0.196084	0.88308	0.039464
368	C	0.214097	0.864823	0.993656
369	C	0.25157	0.827387	0.993436
370	C	0.271051	0.808135	0.130495
371	H	0.16905	0.910138	0.039463
372	C	0.27088	0.808051	0.948407
373	H	0.25864	0.820628	0.164296
374	H	0.320281	0.758737	0.164284
375	H	0.258396	0.820501	0.914608
376	H	0.320192	0.75877	0.914597
377	C	0.039606	0.308507	0.308513
378	C	0.993626	0.327462	0.327367
379	C	0.993843	0.364991	0.364766
380	C	0.039617	0.383078	0.382958
381	C	0.085384	0.364832	0.364901
382	C	0.085593	0.327372	0.327437
383	C	0.948638	0.308111	0.308043
384	C	0.13058	0.308019	0.308105
385	H	0.039623	0.410142	0.409996
386	C	0.039603	0.270747	0.27081
387	C	0.993618	0.251823	0.251938
388	C	0.993829	0.214256	0.214578
389	C	0.039603	0.196096	0.196449
390	C	0.085375	0.214344	0.214487
391	C	0.085587	0.251842	0.251912
392	C	0.948633	0.271194	0.271255
393	H	0.039606	0.169017	0.169425
394	C	0.130577	0.271184	0.271241
395	H	0.914862	0.258701	0.258825
396	H	0.914864	0.320601	0.320484
397	H	0.16435	0.258707	0.258787
398	H	0.164355	0.32047	0.320574
399	C	0.039409	0.77073	0.770523
400	C	0.993424	0.751857	0.751607
401	C	0.993643	0.714393	0.71414
402	C	0.039411	0.696205	0.696033
403	C	0.085179	0.714334	0.714193
404	C	0.085393	0.751808	0.75164
405	C	0.948436	0.771199	0.770944
406	C	0.130384	0.771132	0.770985
407	H	0.039412	0.669149	0.668988
408	C	0.039412	0.808465	0.808246
409	C	0.993433	0.82739	0.827129
410	C	0.993653	0.864921	0.864521
411	C	0.039427	0.883072	0.88265
412	C	0.085194	0.864832	0.864588
413	C	0.0854	0.827342	0.827155
414	C	0.948441	0.808056	0.807792
415	H	0.039433	0.910143	0.90968
416	C	0.130387	0.807985	0.807833
417	H	0.914671	0.820547	0.820233
418	H	0.914665	0.758748	0.758476
419	H	0.164162	0.820443	0.820293
420	H	0.164156	0.758659	0.758528
421	C	0.039563	0.770593	0.30825
422	C	0.085543	0.751662	0.327132
423	C	0.085328	0.714105	0.364555
424	C	0.039548	0.695964	0.382738
425	C	0.993782	0.714209	0.364681
426	C	0.993576	0.751684	0.327183
427	C	0.130531	0.77104	0.30778
428	C	0.948593	0.771014	0.307823
429	H	0.039538	0.668892	0.409805
430	C	0.039566	0.808376	0.27052
431	C	0.085551	0.827356	0.251654
432	C	0.085342	0.864946	0.214268
433	C	0.039569	0.883068	0.196097
434	C	0.993796	0.864778	0.214143
435	C	0.993585	0.827255	0.251593
436	C	0.130535	0.807985	0.270973
437	H	0.039571	0.910174	0.169067
438	C	0.948595	0.807862	0.270926
439	H	0.16431	0.820493	0.258525
440	H	0.164303	0.758551	0.320218
441	H	0.914822	0.820314	0.258455
442	H	0.914817	0.758528	0.320291
443	C	0.039752	0.308551	0.770784
444	C	0.085731	0.32747	0.751849
445	C	0.0855	0.364973	0.714379
446	C	0.039726	0.383129	0.696253
447	C	0.993961	0.364921	0.71439
448	C	0.993765	0.327445	0.751886
449	C	0.130725	0.308147	0.771197
450	C	0.948783	0.308099	0.771279
451	H	0.039721	0.410194	0.669178
452	C	0.039766	0.270793	0.808537
453	C	0.085753	0.251881	0.827419
454	C	0.085548	0.21434	0.864856
455	C	0.039776	0.196146	0.883
456	C	0.994007	0.214343	0.864908
457	C	0.993786	0.251871	0.827468
458	C	0.130736	0.271263	0.808064
459	H	0.039773	0.169047	0.910042
460	C	0.948792	0.271232	0.808157
461	H	0.164512	0.258799	0.820517
462	H	0.164495	0.320643	0.758722
463	H	0.91502	0.258757	0.820647
464	H	0.915006	0.320566	0.758834
465	C	0.30848	0.039686	0.308444
466	C	0.327433	0.993715	0.327327
467	C	0.364945	0.993933	0.364766
468	C	0.38307	0.039704	0.382909
469	C	0.364853	0.085467	0.364807
470	C	0.327359	0.085665	0.327351
471	C	0.308099	0.948738	0.30799
472	C	0.30799	0.130636	0.308
473	H	0.410144	0.039706	0.409955
474	C	0.270715	0.03967	0.270722
475	C	0.251833	0.993693	0.251808
476	C	0.214331	0.993881	0.214356
477	C	0.19611	0.039648	0.196266
478	C	0.214241	0.085408	0.214422
479	C	0.251765	0.085638	0.251841
480	C	0.271219	0.948724	0.271145
481	H	0.169035	0.039652	0.169222
482	C	0.271108	0.130623	0.27116
483	H	0.258766	0.914957	0.258686
484	H	0.320595	0.914973	0.320444
485	H	0.258613	0.164385	0.258699
486	H	0.32045	0.164405	0.32045
487	C	0.770728	0.039778	0.77075
488	C	0.751861	0.993799	0.751816
489	C	0.714418	0.993983	0.714301
490	C	0.696212	0.039758	0.696209
491	C	0.714299	0.085524	0.714413
492	C	0.751784	0.085749	0.751872
493	C	0.771218	0.948833	0.771186
494	C	0.771103	0.130731	0.771224
495	H	0.66916	0.039766	0.669145
496	C	0.80848	0.039794	0.808485
497	C	0.827423	0.993825	0.827378
498	C	0.864945	0.994046	0.864804
499	C	0.883115	0.039804	0.882918
500	C	0.864901	0.085565	0.864815
501	C	0.827375	0.085769	0.82739
502	C	0.808074	0.948847	0.808056
503	H	0.910204	0.0398	0.909949
504	C	0.807988	0.130742	0.808064
505	H	0.820557	0.915082	0.82052
506	H	0.758771	0.915066	0.758722
507	H	0.820447	0.164508	0.82052
508	H	0.758609	0.164495	0.758767
509	C	0.308418	0.039499	0.770579
510	C	0.327428	0.085468	0.751715
511	C	0.36498	0.085256	0.714293
512	C	0.383076	0.039487	0.69613
513	C	0.364789	0.993719	0.714196
514	C	0.327263	0.99352	0.751644
515	C	0.308111	0.130445	0.771067
516	C	0.30784	0.948547	0.770978
517	H	0.410176	0.039483	0.669096
518	C	0.270642	0.03951	0.808314
519	C	0.251807	0.085485	0.827267
520	C	0.214328	0.085289	0.864767
521	C	0.196062	0.039527	0.882848
522	C	0.214125	0.993767	0.864633
523	C	0.251643	0.993538	0.827181
524	C	0.271223	0.130454	0.807926
525	H	0.168995	0.039524	0.909915
526	C	0.270945	0.948557	0.807829
527	H	0.258799	0.164221	0.820409
528	H	0.32064	0.16421	0.758625
529	H	0.258419	0.914795	0.820278
530	H	0.320275	0.914779	0.75851
531	C	0.770657	0.039421	0.308285
532	C	0.751832	0.085396	0.327255
533	C	0.714401	0.085209	0.364808
534	C	0.696157	0.039435	0.382895
535	C	0.71418	0.993669	0.364641
536	C	0.751659	0.993448	0.327149
537	C	0.771219	0.130364	0.307883
538	C	0.770943	0.94847	0.307764
539	H	0.66911	0.039427	0.409984
540	C	0.808423	0.03941	0.270538
541	C	0.827423	0.085379	0.251669
542	C	0.864995	0.085165	0.214267
543	C	0.883131	0.039404	0.196131
544	C	0.864838	0.99364	0.214189
545	C	0.827281	0.993437	0.251606
546	C	0.808091	0.130356	0.271005
547	H	0.910246	0.039406	0.16911
548	C	0.807837	0.94846	0.270913
549	H	0.820609	0.16412	0.258553
550	H	0.758799	0.164132	0.320364
551	H	0.820273	0.914696	0.258439
552	H	0.758417	0.914705	0.32021
553	C	0.308385	0.8084	0.539429
554	C	0.327342	0.827315	0.493419
555	C	0.364804	0.864781	0.493658
556	C	0.382902	0.882899	0.539481
557	C	0.364737	0.864714	0.585289
558	C	0.32725	0.827267	0.585464
559	C	0.30803	0.808008	0.448383
560	C	0.307853	0.80791	0.630471
561	H	0.409955	0.909954	0.539496
562	C	0.270625	0.770689	0.539395
563	C	0.251764	0.751811	0.493367
564	C	0.214275	0.714368	0.49355
565	C	0.196045	0.696246	0.53935
566	C	0.21415	0.714372	0.585166
567	C	0.251659	0.751789	0.585404
568	C	0.271163	0.771169	0.448357
569	H	0.16898	0.669203	0.539347
570	C	0.270968	0.771088	0.630445
571	H	0.258722	0.758732	0.41455
572	H	0.320526	0.820493	0.414591
573	H	0.258454	0.758623	0.664236
574	H	0.32029	0.820343	0.664281
575	C	0.770772	0.270818	0.53957
576	C	0.751948	0.251879	0.493546
577	C	0.714569	0.214315	0.493729
578	C	0.696345	0.196223	0.539552
579	C	0.714331	0.214483	0.585367
580	C	0.751803	0.25194	0.585591
581	C	0.771312	0.271264	0.448535
582	C	0.7711	0.271274	0.63062
583	H	0.669319	0.169144	0.539559
584	C	0.808505	0.308556	0.539593
585	C	0.827426	0.327493	0.493579
586	C	0.86489	0.364958	0.493807
587	C	0.883081	0.383007	0.539619
588	C	0.864932	0.364823	0.585427
589	C	0.8274	0.327418	0.585617
590	C	0.808114	0.308171	0.44855
591	H	0.910156	0.410043	0.539619
592	C	0.808003	0.308079	0.630631
593	H	0.820597	0.320657	0.414755
594	H	0.758903	0.258788	0.414733
595	H	0.820453	0.320514	0.664437
596	H	0.758599	0.258812	0.664415
597	C	0.770526	0.808397	0.539473
598	C	0.751726	0.827368	0.585501
599	C	0.71438	0.864941	0.585322
600	C	0.696153	0.883007	0.539507
601	C	0.714111	0.864713	0.493688
602	C	0.751558	0.827245	0.49346
603	C	0.771073	0.807995	0.630512
604	C	0.770838	0.807882	0.448427
605	H	0.669147	0.910091	0.539507
606	C	0.80824	0.770659	0.539447
607	C	0.827171	0.751759	0.585457
608	C	0.864617	0.714294	0.585225
609	C	0.882773	0.696198	0.539406
610	C	0.864625	0.714364	0.493606
611	C	0.827115	0.751766	0.493419
612	C	0.807861	0.771092	0.630489
613	H	0.909839	0.669173	0.539399
614	C	0.807719	0.771076	0.448405
615	H	0.820335	0.758615	0.664281
616	H	0.758671	0.820484	0.664318
617	H	0.820158	0.758616	0.414599
618	H	0.758334	0.820325	0.414632
619	C	0.308628	0.270768	0.539626
620	C	0.327568	0.251893	0.585643
621	C	0.365017	0.214428	0.585427
622	C	0.383094	0.196253	0.539607
623	C	0.364929	0.214391	0.493799
624	C	0.327485	0.251859	0.493602
625	C	0.308251	0.271233	0.630668
626	C	0.30813	0.271197	0.44858
627	H	0.410126	0.169192	0.5396
628	C	0.270887	0.308476	0.539634
629	C	0.252023	0.327387	0.585658
630	C	0.21457	0.364846	0.585445
631	C	0.196353	0.382929	0.539641
632	C	0.21443	0.364736	0.493833
633	C	0.251936	0.327335	0.493617
634	C	0.271399	0.308071	0.630676
635	H	0.169292	0.409961	0.539637
636	C	0.271263	0.308017	0.448588
637	H	0.258958	0.320541	0.664475
638	H	0.320734	0.258779	0.664467
639	H	0.258772	0.320464	0.414789
640	H	0.320575	0.25874	0.414778
641	C	0.30838	0.539729	0.808362
642	C	0.327313	0.493751	0.827259
643	C	0.364817	0.493946	0.864707
644	C	0.382973	0.539714	0.882825
645	C	0.364758	0.585476	0.864715
646	C	0.327257	0.585697	0.827274
647	C	0.307986	0.44878	0.807904
648	C	0.3079	0.630682	0.807926
649	H	0.41004	0.539715	0.909874
650	C	0.27064	0.539738	0.770616
651	C	0.251783	0.49377	0.751681
652	C	0.21432	0.493991	0.714196
653	C	0.196077	0.539749	0.696119
654	C	0.214185	0.585506	0.714297
655	C	0.251694	0.585713	0.751734
656	C	0.271143	0.448789	0.771026
657	H	0.169013	0.539748	0.669063
658	C	0.271028	0.630691	0.771074
659	H	0.258699	0.415025	0.758547
660	H	0.320471	0.415011	0.82036
661	H	0.258543	0.664455	0.758618
662	H	0.320365	0.664445	0.820382
663	C	0.770641	0.53967	0.270639
664	C	0.751761	0.493701	0.251721
665	C	0.714272	0.493923	0.214263
666	C	0.696051	0.539684	0.19617
667	C	0.71419	0.585445	0.21432
668	C	0.751705	0.585648	0.251753
669	C	0.771114	0.448721	0.27107
670	C	0.771035	0.630619	0.271101
671	H	0.668987	0.539687	0.169114
672	C	0.808393	0.539657	0.308369
673	C	0.827333	0.493678	0.327254
674	C	0.864859	0.493874	0.364676
675	C	0.883013	0.539635	0.382805
676	C	0.864777	0.585396	0.364719
677	C	0.82727	0.585625	0.327282
678	C	0.807981	0.448708	0.307923
679	H	0.910095	0.53964	0.409843
680	C	0.807905	0.63061	0.307953
681	H	0.820464	0.414939	0.320381
682	H	0.758644	0.414957	0.258612
683	H	0.820367	0.66437	0.320418
684	H	0.758544	0.664387	0.258652
685	C	0.308576	0.539458	0.270743
686	C	0.327459	0.585428	0.251757
687	C	0.364887	0.585211	0.214213
688	C	0.383068	0.539446	0.196127
689	C	0.364964	0.493684	0.214378
690	C	0.327494	0.493481	0.251881
691	C	0.308144	0.630406	0.271106
692	C	0.30817	0.448508	0.271307
693	H	0.4101	0.539445	0.169024
694	C	0.270824	0.53947	0.3085
695	C	0.251904	0.585443	0.327365
696	C	0.214338	0.585247	0.364775
697	C	0.196111	0.539486	0.382895
698	C	0.214339	0.493729	0.364844
699	C	0.251905	0.4935	0.327443
700	C	0.27129	0.630416	0.307998
701	H	0.168991	0.539483	0.40991
702	C	0.271285	0.448518	0.308169
703	H	0.258823	0.664183	0.320435
704	H	0.320614	0.664171	0.258603
705	H	0.258807	0.414753	0.320666
706	H	0.320649	0.414741	0.258883
707	C	0.770825	0.539528	0.808478
708	C	0.75188	0.5855	0.827323
709	C	0.714289	0.585301	0.864707
710	C	0.696083	0.539535	0.88284
711	C	0.714345	0.493778	0.864823
712	C	0.751918	0.493557	0.827427
713	C	0.77126	0.630473	0.807952
714	C	0.771294	0.448575	0.808146
715	H	0.668968	0.539529	0.909863
716	C	0.808591	0.539518	0.770735
717	C	0.827483	0.585489	0.751767
718	C	0.864932	0.585268	0.714249
719	C	0.883109	0.539511	0.696145
720	C	0.864984	0.493753	0.714375
721	C	0.827509	0.493546	0.751872
722	C	0.808143	0.630467	0.771089
723	H	0.910153	0.539513	0.669055
724	C	0.808174	0.448569	0.771283
725	H	0.820609	0.664232	0.758584
726	H	0.758769	0.664241	0.820371
727	H	0.82065	0.414802	0.758849
728	H	0.758809	0.41481	0.820632
729	C	0.539602	0.308529	0.808634
730	C	0.493616	0.327489	0.827483
731	C	0.493825	0.365059	0.864845
732	C	0.5396	0.383173	0.883012
733	C	0.585374	0.364892	0.865002
734	C	0.585585	0.327399	0.827569
735	C	0.448635	0.308122	0.808161
736	C	0.630573	0.308034	0.80825
737	H	0.539601	0.410262	0.910027
738	C	0.539605	0.270779	0.770918
739	C	0.493622	0.251865	0.752024
740	C	0.49383	0.21436	0.714595
741	C	0.539619	0.196251	0.696432
742	C	0.585393	0.214448	0.714524
743	C	0.585595	0.251888	0.752013
744	C	0.448638	0.271214	0.771361
745	H	0.539628	0.169208	0.669372
746	C	0.63058	0.271211	0.771373
747	H	0.414867	0.258733	0.758916
748	H	0.414862	0.320614	0.820591
749	H	0.664353	0.258746	0.758916
750	H	0.664348	0.320486	0.820722
751	C	0.539418	0.770703	0.270395
752	C	0.493424	0.751833	0.251488
753	C	0.493624	0.714332	0.214061
754	C	0.539387	0.696107	0.195974
755	C	0.585165	0.714258	0.214089
756	C	0.585393	0.75177	0.251505
757	C	0.448447	0.771201	0.27083
758	C	0.630389	0.771097	0.270828
759	H	0.539378	0.669021	0.168954
760	C	0.539437	0.808427	0.308135
761	C	0.493462	0.827352	0.327041
762	C	0.493694	0.864819	0.364504
763	C	0.539483	0.882911	0.382663
764	C	0.58525	0.864715	0.364543
765	C	0.585431	0.827285	0.327048
766	C	0.448466	0.808047	0.307689
767	H	0.539503	0.909944	0.409731
768	C	0.630412	0.807939	0.307687
769	H	0.4147	0.820531	0.320152
770	H	0.414668	0.758751	0.258372
771	H	0.664191	0.820379	0.320151
772	H	0.664159	0.758617	0.258367
773	C	0.539554	0.770769	0.808388
774	C	0.585527	0.751815	0.827263
775	C	0.585301	0.714211	0.86464
776	C	0.539515	0.696047	0.882788
777	C	0.493749	0.714333	0.864759
778	C	0.493562	0.751864	0.827311
779	C	0.630521	0.771208	0.807937
780	C	0.448583	0.771227	0.807974
781	H	0.539496	0.668938	0.909814
782	C	0.539571	0.808556	0.770657
783	C	0.585563	0.827514	0.751778
784	C	0.585375	0.865074	0.714353
785	C	0.539598	0.883178	0.696164
786	C	0.493812	0.864921	0.714226
787	C	0.493593	0.827439	0.751719
788	C	0.630538	0.808154	0.771127
789	H	0.539606	0.910254	0.6691
790	C	0.4486	0.80808	0.771078
791	H	0.664318	0.820654	0.758685
792	H	0.664286	0.758708	0.820375
793	H	0.414831	0.820543	0.758607
794	H	0.414803	0.758753	0.820442
795	C	0.539731	0.308377	0.270643
796	C	0.585708	0.327313	0.251718
797	C	0.585476	0.364863	0.214293
798	C	0.539699	0.383054	0.196204
799	C	0.493931	0.364811	0.214308
800	C	0.493739	0.327278	0.251752
801	C	0.630702	0.307968	0.271043
802	C	0.44876	0.3079	0.271116
803	H	0.539691	0.410156	0.169167
804	C	0.539747	0.270617	0.308398
805	C	0.585736	0.251717	0.327296
806	C	0.585543	0.21421	0.364771
807	C	0.539765	0.196039	0.382932
808	C	0.493988	0.214213	0.364821
809	C	0.493767	0.2517	0.327334
810	C	0.630715	0.271084	0.307912
811	H	0.539761	0.168973	0.410003
812	C	0.448773	0.271033	0.307996
813	H	0.664491	0.25862	0.32036
814	H	0.66447	0.320465	0.258569
815	H	0.415001	0.258553	0.32048
816	H	0.414983	0.320364	0.25867
