data_C864H432_2018-02-15_12:33:41
#******************************************
#
# CIF file created by Zeo++
# Zeo++ is an open source package to
# analyze microporous materials
#
#*******************************************

_cell_length_a		43.9455   
_cell_length_b		30.1064   
_cell_length_c		25.4164   
_cell_angle_alpha		90.0247   
_cell_angle_beta		89.9774   
_cell_angle_gamma		90.0119   

_symmetry_space_group_name_H-M		'P1'
_symmetry_Int_Tables_number		1
_symmetry_cell_setting		Triclinic

loop_
_symmetry_equiv_pos_as_xyz
'+x,+y,+z'

loop_
_atom_site_label
_atom_site_type_symbol
_atom_site_fract_x
_atom_site_fract_y
_atom_site_fract_z
1	C	0.169669	0.097395	0.043638
2	C	0.168255	0.060504	0.009934
3	C	0.151642	0.022635	0.024579
4	C	0.138271	0.020892	0.075388
5	C	0.136267	0.059251	0.108007
6	C	0.15146	0.098011	0.089596
7	H	0.126632	0.32608	0.085672
8	H	0.152376	0.125679	0.112968
9	H	0.179783	0.060996	0.474781
10	C	0.086425	0.244714	0.293666
11	C	0.087852	0.281593	0.259982
12	C	0.104513	0.31943	0.2746
13	C	0.117828	0.32123	0.325441
14	C	0.119885	0.28283	0.357951
15	C	0.104677	0.244077	0.339545
16	H	0.129576	0.015965	0.335635
17	H	0.103777	0.216403	0.362883
18	H	0.076318	0.281103	0.224849
19	C	0.086414	0.097352	0.221042
20	C	0.087887	0.06052	0.25479
21	C	0.104515	0.022666	0.240136
22	C	0.117819	0.020857	0.189267
23	C	0.119872	0.059244	0.156729
24	C	0.10466	0.097991	0.175136
25	H	0.129559	0.326121	0.17906
26	H	0.103748	0.125654	0.151781
27	H	0.076347	0.061007	0.289933
28	C	0.1697	0.244676	0.470933
29	C	0.168234	0.281524	0.504703
30	C	0.151625	0.319393	0.49009
31	C	0.138325	0.321185	0.439237
32	C	0.136288	0.282818	0.40664
33	C	0.151499	0.244076	0.424994
34	H	0.126639	0.015974	0.429082
35	H	0.152399	0.216374	0.40167
36	H	0.179769	0.28103	0.039839
37	C	0.336423	0.244681	0.470898
38	C	0.337868	0.281546	0.50464
39	C	0.354495	0.319411	0.490011
40	C	0.367785	0.321208	0.439131
41	C	0.369839	0.282825	0.406565
42	C	0.35464	0.244071	0.424955
43	H	0.379465	0.016006	0.428944
44	H	0.35375	0.216359	0.401647
45	H	0.326339	0.281048	0.039791
46	C	0.41969	0.097378	0.220871
47	C	0.418275	0.060498	0.254564
48	C	0.401586	0.022671	0.239988
49	C	0.388206	0.020918	0.189205
50	C	0.386201	0.05927	0.15662
51	C	0.401428	0.098008	0.175
52	H	0.376549	0.326116	0.178934
53	H	0.402322	0.125713	0.151709
54	H	0.429838	0.060976	0.289669
55	C	0.419662	0.244709	0.293484
56	C	0.418255	0.281587	0.259799
57	C	0.401609	0.31943	0.274436
58	C	0.388222	0.32117	0.325236
59	C	0.38623	0.282827	0.357846
60	C	0.401463	0.244099	0.339452
61	H	0.376565	0.015966	0.335524
62	H	0.402373	0.216403	0.362756
63	H	0.429805	0.281104	0.224666
64	C	0.33642	0.097398	0.043568
65	C	0.337847	0.060516	0.009851
66	C	0.35445	0.022652	0.024497
67	C	0.367818	0.020915	0.075293
68	C	0.369805	0.059266	0.107927
69	C	0.35455	0.097976	0.089589
70	H	0.379476	0.326124	0.08555
71	H	0.353712	0.125703	0.112882
72	H	0.326329	0.061008	0.474702
73	C	0.186573	0.134547	0.027332
74	C	0.170599	0.171045	0.007306
75	C	0.186591	0.207526	0.487241
76	C	0.218797	0.208226	0.490385
77	C	0.236554	0.171036	0.007278
78	C	0.218782	0.13384	0.024142
79	H	0.22896	0.236539	0.477409
80	H	0.228938	0.105553	0.037185
81	H	0.147224	0.17105	0.007318
82	C	0.069521	0.207559	0.277357
83	C	0.085505	0.171018	0.257415
84	C	0.069526	0.134499	0.237411
85	C	0.037316	0.133812	0.240504
86	C	0.019554	0.171042	0.257301
87	C	0.037315	0.208269	0.274123
88	H	0.027159	0.105514	0.227457
89	H	0.027153	0.236584	0.287103
90	H	0.108881	0.171009	0.257437
91	C	0.319521	0.207531	0.487218
92	C	0.335506	0.171044	0.007252
93	C	0.31952	0.134547	0.027293
94	C	0.28731	0.13384	0.024132
95	C	0.269552	0.171038	0.007282
96	C	0.287314	0.208244	0.49042
97	H	0.277147	0.105545	0.037162
98	H	0.277161	0.236533	0.477385
99	H	0.358883	0.171048	0.007235
100	C	0.436596	0.134533	0.237189
101	C	0.420602	0.171059	0.257149
102	C	0.436584	0.207561	0.277204
103	C	0.46879	0.208274	0.274054
104	C	0.486556	0.171044	0.257266
105	C	0.468799	0.133812	0.24045
106	H	0.478943	0.236577	0.287102
107	H	0.478956	0.105498	0.227454
108	H	0.397226	0.171062	0.257117
109	C	0.169667	0.097398	0.543638
110	C	0.168251	0.060508	0.509931
111	C	0.151638	0.022639	0.524576
112	C	0.138269	0.020895	0.575385
113	C	0.136266	0.059253	0.60801
114	C	0.15146	0.098012	0.589597
115	H	0.12663	0.326083	0.58567
116	H	0.152377	0.12568	0.612971
117	H	0.179788	0.060992	0.974782
118	C	0.086425	0.244715	0.793666
119	C	0.087852	0.281594	0.759983
120	C	0.104513	0.31943	0.7746
121	C	0.117828	0.321229	0.825441
122	C	0.119885	0.282829	0.857951
123	C	0.104677	0.244077	0.839546
124	H	0.129576	0.015964	0.835635
125	H	0.103777	0.216402	0.862885
126	H	0.076319	0.281104	0.724848
127	C	0.086414	0.097352	0.721044
128	C	0.087887	0.06052	0.75479
129	C	0.104516	0.022667	0.740138
130	C	0.117819	0.020858	0.689269
131	C	0.119872	0.059245	0.656731
132	C	0.10466	0.097992	0.675136
133	H	0.12956	0.326122	0.679063
134	H	0.103748	0.125654	0.651781
135	H	0.076347	0.061007	0.789932
136	C	0.169702	0.244674	0.97093
137	C	0.168238	0.281521	0.004701
138	C	0.151629	0.31939	0.990091
139	C	0.138326	0.321184	0.939238
140	C	0.136289	0.282816	0.906641
141	C	0.1515	0.244075	0.924991
142	H	0.12664	0.015971	0.929083
143	H	0.152399	0.21637	0.901667
144	H	0.179763	0.281033	0.539841
145	C	0.336425	0.244676	0.970898
146	C	0.337875	0.281539	0.004648
147	C	0.354499	0.319406	0.990012
148	C	0.367785	0.321206	0.939128
149	C	0.369837	0.282823	0.906562
150	C	0.35464	0.24407	0.924952
151	H	0.379462	0.016004	0.928941
152	H	0.353747	0.216358	0.90164
153	H	0.32633	0.281058	0.539782
154	C	0.419689	0.097378	0.72087
155	C	0.418275	0.060498	0.754561
156	C	0.401586	0.022671	0.739984
157	C	0.388206	0.020919	0.689202
158	C	0.3862	0.059272	0.656617
159	C	0.401427	0.098009	0.674998
160	H	0.376549	0.326117	0.678929
161	H	0.402322	0.125715	0.651706
162	H	0.429838	0.060975	0.789665
163	C	0.419662	0.244709	0.793481
164	C	0.418255	0.281587	0.759798
165	C	0.401609	0.31943	0.774434
166	C	0.38822	0.32117	0.825232
167	C	0.38623	0.282827	0.857841
168	C	0.401463	0.2441	0.839448
169	H	0.376564	0.015965	0.835521
170	H	0.402373	0.216403	0.862751
171	H	0.429804	0.281104	0.724663
172	C	0.336418	0.097403	0.543567
173	C	0.337845	0.060521	0.509849
174	C	0.354447	0.022657	0.524493
175	C	0.367816	0.020919	0.575291
176	C	0.369803	0.059269	0.607923
177	C	0.35455	0.097979	0.589589
178	H	0.379473	0.326127	0.585544
179	H	0.353711	0.125706	0.612881
180	H	0.326331	0.061002	0.974699
181	C	0.186571	0.13455	0.527334
182	C	0.170597	0.171048	0.507307
183	C	0.186594	0.207523	0.987234
184	C	0.2188	0.208223	0.990382
185	C	0.236551	0.17104	0.50728
186	C	0.21878	0.133843	0.524143
187	H	0.228962	0.236534	0.977406
188	H	0.228935	0.105556	0.537182
189	H	0.147221	0.171053	0.507319
190	C	0.069521	0.20756	0.777358
191	C	0.085505	0.171019	0.757414
192	C	0.069526	0.134499	0.737411
193	C	0.037316	0.133812	0.740503
194	C	0.019554	0.171042	0.7573
195	C	0.037315	0.20827	0.774124
196	H	0.027159	0.105514	0.727457
197	H	0.027153	0.236584	0.787103
198	H	0.108881	0.17101	0.757437
199	C	0.319523	0.207526	0.987215
200	C	0.335503	0.171048	0.507252
201	C	0.319519	0.134551	0.527294
202	C	0.28731	0.133844	0.524131
203	C	0.269549	0.171041	0.507284
204	C	0.287316	0.20824	0.990417
205	H	0.277145	0.10555	0.537162
206	H	0.277165	0.236529	0.977382
207	H	0.35888	0.171052	0.507232
208	C	0.436596	0.134533	0.737187
209	C	0.420602	0.171059	0.757146
210	C	0.436584	0.207561	0.777204
211	C	0.468792	0.208274	0.774053
212	C	0.486556	0.171044	0.757264
213	C	0.468799	0.133812	0.740448
214	H	0.478942	0.236578	0.787099
215	H	0.478956	0.105499	0.727453
216	H	0.397225	0.171062	0.757115
217	C	0.169669	0.430729	0.043638
218	C	0.168255	0.393837	0.009934
219	C	0.151642	0.355967	0.024579
220	C	0.138271	0.354225	0.075388
221	C	0.136266	0.392584	0.108007
222	C	0.15146	0.431343	0.089596
223	H	0.126632	0.659413	0.085672
224	H	0.152376	0.45901	0.112968
225	H	0.179783	0.394329	0.474781
226	C	0.086425	0.578048	0.293666
227	C	0.087852	0.614925	0.259982
228	C	0.104513	0.652763	0.2746
229	C	0.117827	0.654561	0.325441
230	C	0.119885	0.616163	0.357951
231	C	0.104677	0.57741	0.339545
232	H	0.129576	0.349297	0.335635
233	H	0.103777	0.549737	0.362883
234	H	0.076318	0.614437	0.224849
235	C	0.086414	0.430684	0.221042
236	C	0.087887	0.393853	0.25479
237	C	0.104515	0.355999	0.240136
238	C	0.117818	0.35419	0.189267
239	C	0.119872	0.392575	0.156729
240	C	0.10466	0.431325	0.175136
241	H	0.129559	0.659454	0.17906
242	H	0.103748	0.458985	0.151781
243	H	0.076347	0.394341	0.289933
244	C	0.1697	0.578009	0.470933
245	C	0.168234	0.614858	0.504703
246	C	0.151625	0.652725	0.49009
247	C	0.138325	0.654516	0.439237
248	C	0.136288	0.616151	0.40664
249	C	0.151499	0.577408	0.424994
250	H	0.126639	0.349308	0.429082
251	H	0.152399	0.549708	0.40167
252	H	0.179769	0.614363	0.039839
253	C	0.336423	0.578013	0.470898
254	C	0.33787	0.614878	0.50464
255	C	0.354497	0.652745	0.490011
256	C	0.367784	0.65454	0.439131
257	C	0.369839	0.616157	0.406565
258	C	0.35464	0.577405	0.424955
259	H	0.379465	0.349338	0.428944
260	H	0.353749	0.549691	0.401647
261	H	0.326339	0.614383	0.039791
262	C	0.419689	0.43071	0.220871
263	C	0.418275	0.39383	0.254564
264	C	0.401588	0.356002	0.239988
265	C	0.388206	0.35425	0.189205
266	C	0.3862	0.392602	0.15662
267	C	0.401427	0.431341	0.175
268	H	0.376548	0.659451	0.178934
269	H	0.402322	0.459048	0.151709
270	H	0.429838	0.394308	0.289669
271	C	0.419662	0.578041	0.293484
272	C	0.418255	0.614921	0.259799
273	C	0.401609	0.652762	0.274436
274	C	0.388222	0.654505	0.325236
275	C	0.386232	0.616159	0.357846
276	C	0.401463	0.577433	0.339452
277	H	0.376566	0.349297	0.335524
278	H	0.402373	0.549737	0.362756
279	H	0.429804	0.614437	0.224666
280	C	0.33642	0.430732	0.043568
281	C	0.337847	0.393851	0.009851
282	C	0.35445	0.355987	0.024497
283	C	0.367818	0.354248	0.075294
284	C	0.369805	0.392597	0.107927
285	C	0.35455	0.43131	0.089589
286	H	0.379476	0.659456	0.08555
287	H	0.353711	0.459037	0.112882
288	H	0.326329	0.394342	0.474702
289	C	0.186573	0.467881	0.027332
290	C	0.170599	0.504378	0.007306
291	C	0.186592	0.54086	0.487241
292	C	0.218797	0.541559	0.490385
293	C	0.236554	0.504368	0.007278
294	C	0.218782	0.467172	0.024142
295	H	0.22896	0.569871	0.477409
296	H	0.228937	0.438884	0.037185
297	H	0.147224	0.504384	0.007318
298	C	0.069521	0.54089	0.277357
299	C	0.085505	0.504352	0.257415
300	C	0.069526	0.467831	0.237411
301	C	0.037316	0.467145	0.240504
302	C	0.019554	0.504376	0.257301
303	C	0.037315	0.541603	0.274123
304	H	0.027159	0.438847	0.227457
305	H	0.027153	0.569918	0.287103
306	H	0.108881	0.504343	0.257437
307	C	0.31952	0.540864	0.487218
308	C	0.335506	0.504378	0.007252
309	C	0.319519	0.467881	0.027293
310	C	0.287312	0.467172	0.024132
311	C	0.269551	0.504371	0.007282
312	C	0.287314	0.541576	0.49042
313	H	0.277147	0.438878	0.037162
314	H	0.277161	0.569867	0.477385
315	H	0.358882	0.504381	0.007235
316	C	0.436596	0.467864	0.237189
317	C	0.420602	0.504392	0.257149
318	C	0.436584	0.540893	0.277204
319	C	0.468792	0.541606	0.274054
320	C	0.486556	0.504376	0.257266
321	C	0.468799	0.467145	0.24045
322	H	0.478942	0.569911	0.287102
323	H	0.478956	0.438831	0.227454
324	H	0.397225	0.504396	0.257117
325	C	0.169667	0.430731	0.543638
326	C	0.168251	0.39384	0.509931
327	C	0.151638	0.355973	0.524576
328	C	0.138269	0.354228	0.575385
329	C	0.136266	0.392587	0.60801
330	C	0.151459	0.431346	0.589597
331	H	0.12663	0.659416	0.58567
332	H	0.152377	0.459013	0.612971
333	H	0.179788	0.394325	0.974782
334	C	0.086425	0.578047	0.793666
335	C	0.087852	0.614927	0.759983
336	C	0.104514	0.652762	0.7746
337	C	0.117828	0.654561	0.825441
338	C	0.119885	0.616162	0.857951
339	C	0.104677	0.577409	0.839546
340	H	0.129576	0.349297	0.835635
341	H	0.103777	0.549736	0.862885
342	H	0.076319	0.614436	0.724848
343	C	0.086414	0.430683	0.721044
344	C	0.087887	0.393853	0.75479
345	C	0.104516	0.355998	0.740138
346	C	0.117819	0.354189	0.689269
347	C	0.119872	0.392578	0.656731
348	C	0.10466	0.431324	0.675136
349	H	0.12956	0.659457	0.679063
350	H	0.103748	0.458987	0.651781
351	H	0.076347	0.39434	0.789932
352	C	0.169703	0.578005	0.97093
353	C	0.168238	0.614855	0.004701
354	C	0.151629	0.652724	0.990091
355	C	0.138326	0.654516	0.939238
356	C	0.136289	0.61615	0.906641
357	C	0.1515	0.577407	0.924991
358	H	0.12664	0.349304	0.929083
359	H	0.152399	0.549704	0.901667
360	H	0.179763	0.614366	0.539841
361	C	0.336425	0.578009	0.970898
362	C	0.337875	0.614872	0.004648
363	C	0.354499	0.652741	0.990012
364	C	0.367784	0.654539	0.939128
365	C	0.369836	0.616156	0.906562
366	C	0.35464	0.577404	0.924952
367	H	0.379462	0.349337	0.928941
368	H	0.353747	0.54969	0.90164
369	H	0.32633	0.614392	0.539782
370	C	0.419689	0.430713	0.72087
371	C	0.418274	0.393829	0.754561
372	C	0.401588	0.356005	0.739984
373	C	0.388206	0.354252	0.689202
374	C	0.3862	0.392604	0.656617
375	C	0.401429	0.43134	0.674998
376	H	0.376548	0.65945	0.678929
377	H	0.402321	0.459047	0.651706
378	H	0.429838	0.394307	0.789665
379	C	0.419662	0.57804	0.793481
380	C	0.418257	0.614921	0.759798
381	C	0.401609	0.652762	0.774434
382	C	0.38822	0.654504	0.825232
383	C	0.386229	0.616159	0.857841
384	C	0.401463	0.577433	0.839448
385	H	0.376564	0.349297	0.835521
386	H	0.402373	0.549736	0.862751
387	H	0.429804	0.614436	0.724663
388	C	0.33642	0.430735	0.543567
389	C	0.337844	0.393853	0.509849
390	C	0.354449	0.355989	0.524493
391	C	0.367818	0.354251	0.575291
392	C	0.369804	0.3926	0.607923
393	C	0.35455	0.431313	0.589589
394	H	0.379473	0.659459	0.585544
395	H	0.353711	0.45904	0.612881
396	H	0.326331	0.394334	0.974699
397	C	0.186571	0.467884	0.527334
398	C	0.170597	0.50438	0.507307
399	C	0.186594	0.540856	0.987234
400	C	0.2188	0.541555	0.990382
401	C	0.236551	0.504374	0.50728
402	C	0.21878	0.467175	0.524143
403	H	0.228962	0.569866	0.977406
404	H	0.228935	0.43889	0.537182
405	H	0.147221	0.504387	0.507319
406	C	0.069521	0.540893	0.777358
407	C	0.085505	0.504352	0.757414
408	C	0.069526	0.467834	0.737411
409	C	0.037316	0.467144	0.740503
410	C	0.019554	0.504375	0.7573
411	C	0.037315	0.541602	0.774124
412	H	0.027159	0.438846	0.727457
413	H	0.027153	0.569917	0.787103
414	H	0.108881	0.504342	0.757437
415	C	0.319522	0.54086	0.987215
416	C	0.335503	0.50438	0.507252
417	C	0.319519	0.467884	0.527294
418	C	0.287309	0.467178	0.524131
419	C	0.269549	0.504374	0.507284
420	C	0.287318	0.541572	0.990417
421	H	0.277144	0.438883	0.537162
422	H	0.277165	0.56986	0.977382
423	H	0.35888	0.504387	0.507232
424	C	0.436596	0.467867	0.737187
425	C	0.420604	0.504391	0.757146
426	C	0.436583	0.540893	0.777204
427	C	0.468792	0.541606	0.774053
428	C	0.486558	0.504378	0.757264
429	C	0.468798	0.467144	0.740448
430	H	0.478942	0.56991	0.787099
431	H	0.478955	0.438833	0.727453
432	H	0.397225	0.504395	0.757115
433	C	0.169669	0.76406	0.043639
434	C	0.168255	0.727169	0.009934
435	C	0.151642	0.689302	0.024579
436	C	0.138271	0.687556	0.075388
437	C	0.136267	0.725916	0.108007
438	C	0.15146	0.764675	0.089596
439	H	0.126632	0.992745	0.085672
440	H	0.152376	0.792345	0.112968
441	H	0.179783	0.727663	0.474781
442	C	0.086425	0.911379	0.293666
443	C	0.087852	0.94826	0.259982
444	C	0.104513	0.986094	0.2746
445	C	0.117828	0.987896	0.325441
446	C	0.119885	0.949494	0.357951
447	C	0.104677	0.910742	0.339545
448	H	0.129576	0.682629	0.335635
449	H	0.103777	0.883068	0.362883
450	H	0.076318	0.947768	0.224849
451	C	0.086414	0.764019	0.221042
452	C	0.087887	0.727185	0.25479
453	C	0.104515	0.68933	0.240136
454	C	0.117819	0.687521	0.189267
455	C	0.119872	0.72591	0.156729
456	C	0.10466	0.764656	0.175136
457	H	0.129559	0.992785	0.17906
458	H	0.103748	0.79232	0.151781
459	H	0.076347	0.727673	0.289933
460	C	0.1697	0.911341	0.470933
461	C	0.168234	0.948189	0.504703
462	C	0.151625	0.98606	0.49009
463	C	0.138325	0.987851	0.439237
464	C	0.136288	0.949485	0.40664
465	C	0.151499	0.910743	0.424994
466	H	0.126639	0.68264	0.429082
467	H	0.152399	0.883039	0.40167
468	H	0.179769	0.947698	0.039839
469	C	0.336423	0.911347	0.470898
470	C	0.33787	0.948212	0.50464
471	C	0.354497	0.986076	0.490011
472	C	0.367786	0.987874	0.439131
473	C	0.369839	0.949492	0.406565
474	C	0.35464	0.910736	0.424955
475	H	0.379464	0.682673	0.428944
476	H	0.353749	0.883026	0.401647
477	H	0.326339	0.947714	0.039791
478	C	0.419689	0.764045	0.220871
479	C	0.418274	0.727165	0.254564
480	C	0.401588	0.689337	0.239988
481	C	0.388205	0.687585	0.189205
482	C	0.3862	0.725937	0.15662
483	C	0.401429	0.764673	0.175
484	H	0.376548	0.992782	0.178934
485	H	0.402321	0.792379	0.151709
486	H	0.429838	0.727643	0.289669
487	C	0.419662	0.911376	0.293484
488	C	0.418257	0.948253	0.259799
489	C	0.401609	0.986097	0.274436
490	C	0.388222	0.987836	0.325236
491	C	0.386231	0.949494	0.357846
492	C	0.401463	0.910765	0.339452
493	H	0.376566	0.682632	0.335524
494	H	0.402373	0.883068	0.362756
495	H	0.429804	0.947768	0.224666
496	C	0.33642	0.764064	0.043568
497	C	0.337849	0.727182	0.009851
498	C	0.354451	0.689318	0.024497
499	C	0.367818	0.68758	0.075293
500	C	0.369804	0.725932	0.107927
501	C	0.35455	0.764642	0.089589
502	H	0.379475	0.992788	0.08555
503	H	0.353711	0.792369	0.112882
504	H	0.326329	0.727673	0.474702
505	C	0.186573	0.801213	0.027332
506	C	0.170599	0.837713	0.007306
507	C	0.186591	0.874192	0.487241
508	C	0.218797	0.874894	0.490385
509	C	0.236553	0.837703	0.007278
510	C	0.218782	0.800507	0.024142
511	H	0.22896	0.903205	0.477409
512	H	0.228937	0.772219	0.037185
513	H	0.147224	0.837716	0.007318
514	C	0.069521	0.874225	0.277357
515	C	0.085505	0.837684	0.257415
516	C	0.069526	0.801166	0.237411
517	C	0.037316	0.800476	0.240504
518	C	0.019554	0.837707	0.257301
519	C	0.037315	0.874935	0.274123
520	H	0.027159	0.772179	0.227457
521	H	0.027153	0.903249	0.287103
522	H	0.108881	0.837674	0.257437
523	C	0.31952	0.874198	0.487218
524	C	0.335505	0.837709	0.007252
525	C	0.319519	0.801213	0.027293
526	C	0.287312	0.800507	0.024132
527	C	0.269551	0.837703	0.007282
528	C	0.287316	0.87491	0.49042
529	H	0.277147	0.772212	0.037162
530	H	0.27716	0.903199	0.477385
531	H	0.358882	0.837713	0.007235
532	C	0.436596	0.801199	0.237189
533	C	0.420604	0.837724	0.257149
534	C	0.436583	0.874225	0.277204
535	C	0.468792	0.874938	0.274054
536	C	0.486558	0.83771	0.257266
537	C	0.468798	0.800476	0.24045
538	H	0.478942	0.903242	0.287102
539	H	0.478955	0.772165	0.227454
540	H	0.397225	0.837727	0.257117
541	C	0.169667	0.764063	0.543638
542	C	0.168251	0.727175	0.509931
543	C	0.151638	0.689304	0.524576
544	C	0.138269	0.687559	0.575385
545	C	0.136266	0.725918	0.60801
546	C	0.151459	0.764677	0.589597
547	H	0.12663	0.992751	0.58567
548	H	0.152377	0.792345	0.612971
549	H	0.179788	0.727659	0.974782
550	C	0.086425	0.911382	0.793666
551	C	0.087852	0.948259	0.759983
552	C	0.104513	0.986097	0.7746
553	C	0.117828	0.987895	0.825441
554	C	0.119885	0.949494	0.857951
555	C	0.104677	0.910744	0.839546
556	H	0.129576	0.682628	0.835635
557	H	0.103777	0.883067	0.862885
558	H	0.076319	0.947771	0.724848
559	C	0.086414	0.764018	0.721044
560	C	0.087887	0.727187	0.75479
561	C	0.104516	0.689333	0.740138
562	C	0.117819	0.687524	0.689269
563	C	0.119872	0.725909	0.656731
564	C	0.10466	0.764659	0.675136
565	H	0.12956	0.992788	0.679063
566	H	0.103748	0.792319	0.651781
567	H	0.076347	0.727672	0.789932
568	C	0.169702	0.91134	0.97093
569	C	0.168238	0.948187	0.004701
570	C	0.151629	0.986055	0.990091
571	C	0.138326	0.987851	0.939238
572	C	0.136289	0.949481	0.906641
573	C	0.1515	0.910742	0.924991
574	H	0.12664	0.682636	0.929083
575	H	0.152399	0.883035	0.901667
576	H	0.179763	0.9477	0.539841
577	C	0.336427	0.911343	0.970898
578	C	0.337875	0.948203	0.004648
579	C	0.354499	0.986072	0.990012
580	C	0.367786	0.98787	0.939128
581	C	0.369838	0.949488	0.906562
582	C	0.354639	0.910735	0.924952
583	H	0.379462	0.682669	0.928941
584	H	0.353746	0.883025	0.90164
585	H	0.326329	0.947724	0.539782
586	C	0.419689	0.764044	0.72087
587	C	0.418274	0.727164	0.754561
588	C	0.401588	0.689336	0.739984
589	C	0.388205	0.687584	0.689202
590	C	0.3862	0.725936	0.656617
591	C	0.401429	0.764675	0.674998
592	H	0.376548	0.992785	0.678929
593	H	0.402321	0.792382	0.651706
594	H	0.429837	0.727642	0.789665
595	C	0.419661	0.911375	0.793481
596	C	0.418257	0.948252	0.759798
597	C	0.401608	0.986097	0.774434
598	C	0.388221	0.987836	0.825232
599	C	0.386229	0.949493	0.857841
600	C	0.401462	0.910764	0.839448
601	H	0.376564	0.682631	0.835521
602	H	0.402372	0.883067	0.862751
603	H	0.429804	0.947771	0.724663
604	C	0.336419	0.764069	0.543567
605	C	0.337846	0.727188	0.509849
606	C	0.354449	0.689324	0.524493
607	C	0.367817	0.687586	0.575291
608	C	0.369804	0.725935	0.607923
609	C	0.354549	0.764644	0.589589
610	H	0.379473	0.992794	0.585544
611	H	0.353711	0.792371	0.612881
612	H	0.326331	0.727669	0.974699
613	C	0.186571	0.801215	0.527334
614	C	0.170597	0.837715	0.507307
615	C	0.186594	0.874188	0.987234
616	C	0.2188	0.87489	0.990382
617	C	0.236553	0.837705	0.50728
618	C	0.21878	0.80051	0.524143
619	H	0.228962	0.903201	0.977406
620	H	0.228934	0.772222	0.537182
621	H	0.147221	0.837718	0.507319
622	C	0.069521	0.874224	0.777358
623	C	0.085505	0.837683	0.757414
624	C	0.069526	0.801165	0.737411
625	C	0.037316	0.800479	0.740503
626	C	0.019554	0.837706	0.7573
627	C	0.037315	0.874934	0.774124
628	H	0.027159	0.772181	0.727457
629	H	0.027153	0.903252	0.787103
630	H	0.108881	0.837677	0.757437
631	C	0.319522	0.874191	0.987215
632	C	0.335503	0.837715	0.507252
633	C	0.319519	0.801218	0.527294
634	C	0.287309	0.80051	0.524131
635	C	0.269548	0.837708	0.507284
636	C	0.287318	0.874906	0.990417
637	H	0.277146	0.772215	0.537162
638	H	0.277165	0.903195	0.977382
639	H	0.358879	0.837718	0.507232
640	C	0.436595	0.801199	0.737187
641	C	0.420603	0.837726	0.757146
642	C	0.436583	0.874228	0.777204
643	C	0.468792	0.874941	0.774053
644	C	0.486558	0.83771	0.757264
645	C	0.468798	0.800479	0.740448
646	H	0.478942	0.903245	0.787099
647	H	0.478957	0.772165	0.727453
648	H	0.397227	0.837726	0.757115
649	C	0.669669	0.097395	0.043638
650	C	0.668254	0.060504	0.009934
651	C	0.651643	0.022635	0.024579
652	C	0.638271	0.020892	0.075388
653	C	0.636267	0.059251	0.108007
654	C	0.651459	0.098011	0.089596
655	H	0.626632	0.32608	0.085672
656	H	0.652377	0.125679	0.112968
657	H	0.679783	0.060996	0.474781
658	C	0.586425	0.244714	0.293666
659	C	0.587851	0.281593	0.259982
660	C	0.604513	0.31943	0.2746
661	C	0.617827	0.32123	0.325441
662	C	0.619885	0.28283	0.357951
663	C	0.604676	0.244077	0.339545
664	H	0.629575	0.015965	0.335635
665	H	0.603777	0.216403	0.362883
666	H	0.576318	0.281103	0.224849
667	C	0.586414	0.097352	0.221042
668	C	0.587887	0.06052	0.25479
669	C	0.604515	0.022666	0.240136
670	C	0.617818	0.020857	0.189267
671	C	0.619872	0.059244	0.156729
672	C	0.604661	0.097991	0.175136
673	H	0.62956	0.326121	0.17906
674	H	0.603749	0.125654	0.151781
675	H	0.576347	0.061007	0.289933
676	C	0.669699	0.244676	0.470933
677	C	0.668234	0.281524	0.504703
678	C	0.651624	0.319393	0.49009
679	C	0.638324	0.321185	0.439237
680	C	0.636287	0.282818	0.40664
681	C	0.651499	0.244076	0.424994
682	H	0.626639	0.015974	0.429082
683	H	0.652399	0.216374	0.40167
684	H	0.67977	0.28103	0.039839
685	C	0.836422	0.244681	0.470898
686	C	0.837869	0.281546	0.50464
687	C	0.854496	0.319411	0.490011
688	C	0.867785	0.321208	0.439131
689	C	0.869838	0.282825	0.406565
690	C	0.854641	0.244071	0.424955
691	H	0.879466	0.016006	0.428944
692	H	0.853748	0.216359	0.401647
693	H	0.826338	0.281048	0.039791
694	C	0.91969	0.097378	0.220871
695	C	0.918273	0.060498	0.254564
696	C	0.901587	0.022671	0.239988
697	C	0.888205	0.020918	0.189205
698	C	0.886199	0.05927	0.15662
699	C	0.901428	0.098008	0.175
700	H	0.876547	0.326116	0.178934
701	H	0.902323	0.125713	0.151709
702	H	0.929837	0.060976	0.289669
703	C	0.919663	0.244709	0.293484
704	C	0.918256	0.281587	0.259799
705	C	0.90161	0.31943	0.274436
706	C	0.888221	0.32117	0.325236
707	C	0.88623	0.282827	0.357846
708	C	0.901464	0.244099	0.339452
709	H	0.876565	0.015966	0.335524
710	H	0.902374	0.216403	0.362756
711	H	0.929803	0.281104	0.224666
712	C	0.836421	0.097398	0.043568
713	C	0.837848	0.060516	0.009851
714	C	0.854451	0.022652	0.024497
715	C	0.867819	0.020915	0.075293
716	C	0.869803	0.059266	0.107927
717	C	0.854549	0.097976	0.089589
718	H	0.879474	0.326124	0.08555
719	H	0.853712	0.125703	0.112882
720	H	0.826328	0.061008	0.474702
721	C	0.686572	0.134547	0.027332
722	C	0.6706	0.171045	0.007306
723	C	0.686591	0.207526	0.487241
724	C	0.718798	0.208226	0.490385
725	C	0.736555	0.171036	0.007278
726	C	0.718783	0.13384	0.024142
727	H	0.728961	0.236539	0.477409
728	H	0.728936	0.105553	0.037185
729	H	0.647224	0.17105	0.007318
730	C	0.569521	0.207559	0.277357
731	C	0.585504	0.171018	0.257415
732	C	0.569527	0.134499	0.237411
733	C	0.537316	0.133812	0.240504
734	C	0.519554	0.171042	0.257301
735	C	0.537316	0.208269	0.274123
736	H	0.527159	0.105514	0.227457
737	H	0.527152	0.236584	0.287103
738	H	0.608881	0.171009	0.257437
739	C	0.819519	0.207531	0.487218
740	C	0.835507	0.171044	0.007252
741	C	0.81952	0.134547	0.027293
742	C	0.787311	0.13384	0.024132
743	C	0.769552	0.171038	0.007282
744	C	0.787315	0.208244	0.49042
745	H	0.777146	0.105545	0.037162
746	H	0.777162	0.236533	0.477385
747	H	0.858881	0.171048	0.007235
748	C	0.936597	0.134533	0.237189
749	C	0.920603	0.171059	0.257149
750	C	0.936582	0.207561	0.277204
751	C	0.968791	0.208274	0.274054
752	C	0.986557	0.171044	0.257266
753	C	0.9688	0.133812	0.24045
754	H	0.978941	0.236577	0.287102
755	H	0.978957	0.105498	0.227454
756	H	0.897226	0.171062	0.257117
757	C	0.669666	0.097398	0.543638
758	C	0.668251	0.060508	0.509931
759	C	0.651638	0.022639	0.524576
760	C	0.638269	0.020895	0.575385
761	C	0.636266	0.059253	0.60801
762	C	0.651459	0.098012	0.589597
763	H	0.626629	0.326083	0.58567
764	H	0.652376	0.12568	0.612971
765	H	0.679787	0.060992	0.974782
766	C	0.586425	0.244715	0.793666
767	C	0.587851	0.281594	0.759983
768	C	0.604512	0.31943	0.7746
769	C	0.617829	0.321229	0.825441
770	C	0.619885	0.282829	0.857951
771	C	0.604676	0.244077	0.839546
772	H	0.629575	0.015964	0.835635
773	H	0.603777	0.216402	0.862885
774	H	0.57632	0.281104	0.724848
775	C	0.586414	0.097352	0.721044
776	C	0.587887	0.06052	0.75479
777	C	0.604517	0.022667	0.740138
778	C	0.61782	0.020858	0.689269
779	C	0.619871	0.059245	0.656731
780	C	0.604661	0.097992	0.675136
781	H	0.629559	0.326122	0.679063
782	H	0.603748	0.125654	0.651781
783	H	0.576346	0.061007	0.789932
784	C	0.669701	0.244674	0.97093
785	C	0.668239	0.281521	0.004701
786	C	0.651629	0.31939	0.990091
787	C	0.638326	0.321184	0.939238
788	C	0.636289	0.282816	0.906641
789	C	0.651501	0.244075	0.924991
790	H	0.626641	0.015971	0.929083
791	H	0.652399	0.21637	0.901667
792	H	0.679763	0.281033	0.539841
793	C	0.836426	0.244676	0.970898
794	C	0.837876	0.281539	0.004648
795	C	0.8545	0.319406	0.990012
796	C	0.867785	0.321206	0.939128
797	C	0.869837	0.282823	0.906562
798	C	0.854641	0.24407	0.924952
799	H	0.879463	0.016004	0.928941
800	H	0.853746	0.216358	0.90164
801	H	0.826328	0.281058	0.539782
802	C	0.91969	0.097378	0.72087
803	C	0.918275	0.060498	0.754561
804	C	0.901587	0.022671	0.739984
805	C	0.888204	0.020919	0.689202
806	C	0.886199	0.059272	0.656617
807	C	0.901428	0.098009	0.674998
808	H	0.876547	0.326117	0.678929
809	H	0.902322	0.125715	0.651706
810	H	0.929836	0.060975	0.789665
811	C	0.919663	0.244709	0.793481
812	C	0.918256	0.281587	0.759798
813	C	0.90161	0.31943	0.774434
814	C	0.88822	0.32117	0.825232
815	C	0.88623	0.282827	0.857841
816	C	0.901464	0.2441	0.839448
817	H	0.876565	0.015965	0.835521
818	H	0.902371	0.216403	0.862751
819	H	0.929805	0.281104	0.724663
820	C	0.836418	0.097403	0.543567
821	C	0.837845	0.060521	0.509849
822	C	0.854448	0.022657	0.524493
823	C	0.867816	0.020919	0.575291
824	C	0.869803	0.059269	0.607923
825	C	0.854549	0.097979	0.589589
826	H	0.879474	0.326127	0.585544
827	H	0.853712	0.125706	0.612881
828	H	0.826332	0.061002	0.974699
829	C	0.686571	0.13455	0.527334
830	C	0.670598	0.171048	0.507307
831	C	0.686593	0.207523	0.987234
832	C	0.7188	0.208223	0.990382
833	C	0.736552	0.17104	0.50728
834	C	0.71878	0.133843	0.524143
835	H	0.728963	0.236534	0.977406
836	H	0.728936	0.105556	0.537182
837	H	0.647221	0.171053	0.507319
838	C	0.569521	0.20756	0.777358
839	C	0.585504	0.171019	0.757414
840	C	0.569526	0.134499	0.737411
841	C	0.537315	0.133812	0.740503
842	C	0.519554	0.171042	0.7573
843	C	0.537316	0.20827	0.774124
844	H	0.527158	0.105514	0.727457
845	H	0.527152	0.236584	0.787103
846	H	0.60888	0.17101	0.757437
847	C	0.819523	0.207526	0.987215
848	C	0.835504	0.171048	0.507252
849	C	0.819518	0.134551	0.527294
850	C	0.787308	0.133844	0.524131
851	C	0.76955	0.171041	0.507284
852	C	0.787317	0.20824	0.990417
853	H	0.777145	0.10555	0.537162
854	H	0.777164	0.236529	0.977382
855	H	0.858881	0.171052	0.507232
856	C	0.936597	0.134533	0.737187
857	C	0.920602	0.171059	0.757146
858	C	0.936584	0.207561	0.777204
859	C	0.968791	0.208274	0.774053
860	C	0.986557	0.171044	0.757264
861	C	0.968799	0.133812	0.740448
862	H	0.978943	0.236578	0.787099
863	H	0.978956	0.105499	0.727453
864	H	0.897226	0.171062	0.757115
865	C	0.669669	0.430729	0.043638
866	C	0.668256	0.393837	0.009934
867	C	0.651642	0.355967	0.024579
868	C	0.638271	0.354225	0.075388
869	C	0.636266	0.392584	0.108007
870	C	0.651461	0.431343	0.089596
871	H	0.626632	0.659413	0.085672
872	H	0.652376	0.45901	0.112968
873	H	0.679782	0.394329	0.474781
874	C	0.586425	0.578048	0.293666
875	C	0.587851	0.614925	0.259982
876	C	0.604512	0.652763	0.2746
877	C	0.617827	0.654561	0.325441
878	C	0.619885	0.616163	0.357951
879	C	0.604678	0.57741	0.339545
880	H	0.629575	0.349297	0.335635
881	H	0.603777	0.549737	0.362883
882	H	0.576317	0.614437	0.224849
883	C	0.586414	0.430684	0.221042
884	C	0.587887	0.393853	0.25479
885	C	0.604514	0.355999	0.240136
886	C	0.61782	0.35419	0.189267
887	C	0.619871	0.392575	0.156729
888	C	0.604661	0.431325	0.175136
889	H	0.629559	0.659454	0.17906
890	H	0.603748	0.458985	0.151781
891	H	0.576346	0.394341	0.289933
892	C	0.669699	0.578009	0.470933
893	C	0.668233	0.614858	0.504703
894	C	0.651624	0.652725	0.49009
895	C	0.638324	0.654516	0.439237
896	C	0.636289	0.616151	0.40664
897	C	0.651498	0.577408	0.424994
898	H	0.626639	0.349308	0.429082
899	H	0.652399	0.549708	0.40167
900	H	0.679769	0.614363	0.039839
901	C	0.836424	0.578013	0.470898
902	C	0.837868	0.614878	0.50464
903	C	0.854495	0.652745	0.490011
904	C	0.867785	0.65454	0.439131
905	C	0.869837	0.616157	0.406565
906	C	0.854641	0.577405	0.424955
907	H	0.879465	0.349338	0.428944
908	H	0.853748	0.549691	0.401647
909	H	0.82634	0.614383	0.039791
910	C	0.91969	0.43071	0.220871
911	C	0.918275	0.39383	0.254564
912	C	0.901587	0.356002	0.239988
913	C	0.888206	0.35425	0.189205
914	C	0.886199	0.392602	0.15662
915	C	0.901428	0.431341	0.175
916	H	0.876547	0.659451	0.178934
917	H	0.902322	0.459048	0.151709
918	H	0.929839	0.394308	0.289669
919	C	0.919663	0.578041	0.293484
920	C	0.918256	0.614921	0.259799
921	C	0.90161	0.652762	0.274436
922	C	0.88822	0.654505	0.325236
923	C	0.88623	0.616159	0.357846
924	C	0.901464	0.577433	0.339452
925	H	0.876565	0.349297	0.335524
926	H	0.902374	0.549737	0.362756
927	H	0.929805	0.614437	0.224666
928	C	0.836421	0.430732	0.043568
929	C	0.837847	0.393851	0.009851
930	C	0.85445	0.355987	0.024497
931	C	0.867819	0.354248	0.075294
932	C	0.869803	0.392597	0.107927
933	C	0.854551	0.43131	0.089589
934	H	0.879474	0.659456	0.08555
935	H	0.853712	0.459037	0.112882
936	H	0.82633	0.394342	0.474702
937	C	0.686574	0.467881	0.027332
938	C	0.6706	0.504378	0.007306
939	C	0.686591	0.54086	0.487241
940	C	0.718798	0.541559	0.490385
941	C	0.736554	0.504368	0.007278
942	C	0.718782	0.467172	0.024142
943	H	0.728961	0.569871	0.477409
944	H	0.728936	0.438884	0.037185
945	H	0.647223	0.504384	0.007318
946	C	0.569521	0.54089	0.277357
947	C	0.585506	0.504352	0.257415
948	C	0.569526	0.467831	0.237411
949	C	0.537315	0.467145	0.240504
950	C	0.519554	0.504376	0.257301
951	C	0.537316	0.541603	0.274123
952	H	0.527158	0.438847	0.227457
953	H	0.527152	0.569918	0.287103
954	H	0.60888	0.504343	0.257437
955	C	0.819519	0.540864	0.487218
956	C	0.835506	0.504378	0.007252
957	C	0.81952	0.467881	0.027293
958	C	0.78731	0.467172	0.024132
959	C	0.769552	0.504371	0.007282
960	C	0.787315	0.541576	0.49042
961	H	0.777147	0.438878	0.037162
962	H	0.777161	0.569867	0.477385
963	H	0.858883	0.504381	0.007235
964	C	0.936597	0.467864	0.237189
965	C	0.920602	0.504392	0.257149
966	C	0.936584	0.540893	0.277204
967	C	0.968791	0.541606	0.274054
968	C	0.986557	0.504376	0.257266
969	C	0.968799	0.467145	0.24045
970	H	0.978943	0.569911	0.287102
971	H	0.978956	0.438831	0.227454
972	H	0.897226	0.504396	0.257117
973	C	0.669666	0.430731	0.543638
974	C	0.668251	0.39384	0.509931
975	C	0.651638	0.355973	0.524576
976	C	0.638268	0.354228	0.575385
977	C	0.636266	0.392587	0.60801
978	C	0.65146	0.431346	0.589597
979	H	0.626631	0.659416	0.58567
980	H	0.652376	0.459013	0.612971
981	H	0.679789	0.394325	0.974782
982	C	0.586425	0.578047	0.793666
983	C	0.587853	0.614927	0.759983
984	C	0.604514	0.652762	0.7746
985	C	0.617829	0.654561	0.825441
986	C	0.619887	0.616162	0.857951
987	C	0.604678	0.577409	0.839546
988	H	0.629577	0.349297	0.835635
989	H	0.603776	0.549736	0.862885
990	H	0.576319	0.614436	0.724848
991	C	0.586414	0.430683	0.721044
992	C	0.587887	0.393853	0.75479
993	C	0.604516	0.355998	0.740138
994	C	0.617819	0.354189	0.689269
995	C	0.619871	0.392578	0.656731
996	C	0.60466	0.431324	0.675136
997	H	0.629559	0.659457	0.679063
998	H	0.603748	0.458987	0.651781
999	H	0.576346	0.39434	0.789932
1000	C	0.669703	0.578005	0.97093
1001	C	0.668238	0.614855	0.004701
1002	C	0.651628	0.652724	0.990091
1003	C	0.638326	0.654516	0.939238
1004	C	0.636289	0.61615	0.906641
1005	C	0.6515	0.577407	0.924991
1006	H	0.626641	0.349304	0.929083
1007	H	0.652398	0.549704	0.901667
1008	H	0.679762	0.614366	0.539841
1009	C	0.836426	0.578009	0.970898
1010	C	0.837876	0.614872	0.004648
1011	C	0.8545	0.652741	0.990012
1012	C	0.867785	0.654539	0.939128
1013	C	0.869837	0.616156	0.906562
1014	C	0.85464	0.577404	0.924952
1015	H	0.879463	0.349337	0.928941
1016	H	0.853747	0.54969	0.90164
1017	H	0.826328	0.614392	0.539782
1018	C	0.91969	0.430713	0.72087
1019	C	0.918275	0.393829	0.754561
1020	C	0.901586	0.356005	0.739984
1021	C	0.888206	0.354252	0.689202
1022	C	0.886198	0.392604	0.656617
1023	C	0.901428	0.43134	0.674998
1024	H	0.876549	0.65945	0.678929
1025	H	0.902322	0.459047	0.651706
1026	H	0.929838	0.394307	0.789665
1027	C	0.919662	0.57804	0.793481
1028	C	0.918255	0.614921	0.759798
1029	C	0.901609	0.652762	0.774434
1030	C	0.88822	0.654504	0.825232
1031	C	0.88623	0.616159	0.857841
1032	C	0.901463	0.577433	0.839448
1033	H	0.876565	0.349297	0.835521
1034	H	0.902373	0.549736	0.862751
1035	H	0.929805	0.614436	0.724663
1036	C	0.836418	0.430735	0.543567
1037	C	0.837845	0.393853	0.509849
1038	C	0.854448	0.355989	0.524493
1039	C	0.867816	0.354251	0.575291
1040	C	0.869803	0.3926	0.607923
1041	C	0.854548	0.431313	0.589589
1042	H	0.879474	0.659459	0.585544
1043	H	0.853712	0.45904	0.612881
1044	H	0.826332	0.394334	0.974699
1045	C	0.686571	0.467884	0.527334
1046	C	0.670597	0.50438	0.507307
1047	C	0.686595	0.540856	0.987234
1048	C	0.7188	0.541555	0.990382
1049	C	0.736552	0.504374	0.50728
1050	C	0.71878	0.467175	0.524143
1051	H	0.728963	0.569866	0.977406
1052	H	0.728935	0.43889	0.537182
1053	H	0.647221	0.504387	0.507319
1054	C	0.56952	0.540893	0.777358
1055	C	0.585506	0.504352	0.757414
1056	C	0.569526	0.467834	0.737411
1057	C	0.537317	0.467144	0.740503
1058	C	0.519553	0.504375	0.7573
1059	C	0.537316	0.541602	0.774124
1060	H	0.527158	0.438846	0.727457
1061	H	0.527152	0.569917	0.787103
1062	H	0.608882	0.504342	0.757437
1063	C	0.819523	0.54086	0.987215
1064	C	0.835504	0.50438	0.507252
1065	C	0.819517	0.467884	0.527294
1066	C	0.78731	0.467178	0.524131
1067	C	0.769549	0.504374	0.507284
1068	C	0.787317	0.541572	0.990417
1069	H	0.777145	0.438883	0.537162
1070	H	0.777166	0.56986	0.977382
1071	H	0.85888	0.504387	0.507232
1072	C	0.936596	0.467867	0.737187
1073	C	0.920602	0.504391	0.757146
1074	C	0.936584	0.540893	0.777204
1075	C	0.96879	0.541606	0.774053
1076	C	0.986556	0.504378	0.757264
1077	C	0.968799	0.467144	0.740448
1078	H	0.978943	0.56991	0.787099
1079	H	0.978956	0.438833	0.727453
1080	H	0.897225	0.504395	0.757115
1081	C	0.669668	0.76406	0.043639
1082	C	0.668255	0.727169	0.009934
1083	C	0.651642	0.689302	0.024579
1084	C	0.63827	0.687556	0.075388
1085	C	0.636266	0.725916	0.108007
1086	C	0.65146	0.764675	0.089596
1087	H	0.626631	0.992745	0.085672
1088	H	0.652376	0.792345	0.112968
1089	H	0.679782	0.727663	0.474781
1090	C	0.586425	0.911379	0.293666
1091	C	0.587851	0.94826	0.259982
1092	C	0.604512	0.986094	0.2746
1093	C	0.617829	0.987896	0.325441
1094	C	0.619884	0.949494	0.357951
1095	C	0.604678	0.910742	0.339545
1096	H	0.629575	0.682629	0.335635
1097	H	0.603776	0.883068	0.362883
1098	H	0.576317	0.947768	0.224849
1099	C	0.586413	0.764019	0.221042
1100	C	0.587886	0.727185	0.25479
1101	C	0.604516	0.68933	0.240136
1102	C	0.617819	0.687521	0.189267
1103	C	0.619871	0.72591	0.156729
1104	C	0.60466	0.764656	0.175136
1105	H	0.629559	0.992785	0.17906
1106	H	0.603748	0.79232	0.151781
1107	H	0.576346	0.727673	0.289933
1108	C	0.669699	0.911341	0.470933
1109	C	0.668233	0.948189	0.504703
1110	C	0.651626	0.98606	0.49009
1111	C	0.638326	0.987851	0.439237
1112	C	0.636289	0.949485	0.40664
1113	C	0.651498	0.910743	0.424994
1114	H	0.626638	0.68264	0.429082
1115	H	0.652398	0.883039	0.40167
1116	H	0.679769	0.947698	0.039839
1117	C	0.836423	0.911347	0.470898
1118	C	0.837868	0.948212	0.50464
1119	C	0.854495	0.986076	0.490011
1120	C	0.867785	0.987874	0.439131
1121	C	0.869839	0.949492	0.406565
1122	C	0.85464	0.910736	0.424955
1123	H	0.879465	0.682673	0.428944
1124	H	0.85375	0.883026	0.401647
1125	H	0.826339	0.947714	0.039791
1126	C	0.91969	0.764045	0.220871
1127	C	0.918275	0.727165	0.254564
1128	C	0.901586	0.689337	0.239988
1129	C	0.888206	0.687585	0.189205
1130	C	0.886201	0.725937	0.15662
1131	C	0.901428	0.764673	0.175
1132	H	0.876549	0.992782	0.178934
1133	H	0.902322	0.792379	0.151709
1134	H	0.929838	0.727643	0.289669
1135	C	0.919662	0.911376	0.293484
1136	C	0.918255	0.948253	0.259799
1137	C	0.901609	0.986097	0.274436
1138	C	0.888222	0.987836	0.325236
1139	C	0.88623	0.949494	0.357846
1140	C	0.901463	0.910765	0.339452
1141	H	0.876564	0.682632	0.335524
1142	H	0.902373	0.883068	0.362756
1143	H	0.929805	0.947768	0.224666
1144	C	0.83642	0.764064	0.043568
1145	C	0.837847	0.727182	0.009851
1146	C	0.85445	0.689318	0.024497
1147	C	0.867818	0.68758	0.075293
1148	C	0.869805	0.725932	0.107927
1149	C	0.85455	0.764642	0.089589
1150	H	0.879476	0.992788	0.08555
1151	H	0.853712	0.792369	0.112882
1152	H	0.826329	0.727673	0.474702
1153	C	0.686573	0.801213	0.027332
1154	C	0.6706	0.837713	0.007306
1155	C	0.686592	0.874192	0.487241
1156	C	0.718798	0.874894	0.490385
1157	C	0.736554	0.837703	0.007278
1158	C	0.718782	0.800507	0.024142
1159	H	0.72896	0.903205	0.477409
1160	H	0.728937	0.772219	0.037185
1161	H	0.647223	0.837716	0.007318
1162	C	0.56952	0.874225	0.277357
1163	C	0.585505	0.837684	0.257415
1164	C	0.569526	0.801166	0.237411
1165	C	0.537317	0.800476	0.240504
1166	C	0.519553	0.837707	0.257301
1167	C	0.537315	0.874935	0.274123
1168	H	0.527158	0.772179	0.227457
1169	H	0.527154	0.903249	0.287103
1170	H	0.608882	0.837674	0.257437
1171	C	0.819521	0.874198	0.487218
1172	C	0.835506	0.837709	0.007252
1173	C	0.81952	0.801213	0.027293
1174	C	0.78731	0.800507	0.024132
1175	C	0.769552	0.837703	0.007282
1176	C	0.787314	0.87491	0.49042
1177	H	0.777147	0.772212	0.037162
1178	H	0.777161	0.903199	0.477385
1179	H	0.858883	0.837713	0.007235
1180	C	0.936596	0.801199	0.237189
1181	C	0.920602	0.837724	0.257149
1182	C	0.936584	0.874225	0.277204
1183	C	0.96879	0.874938	0.274054
1184	C	0.986556	0.83771	0.257266
1185	C	0.968799	0.800476	0.24045
1186	H	0.978943	0.903242	0.287102
1187	H	0.978956	0.772165	0.227454
1188	H	0.897225	0.837727	0.257117
1189	C	0.669668	0.764063	0.543638
1190	C	0.668251	0.727175	0.509931
1191	C	0.651639	0.689304	0.524576
1192	C	0.638268	0.687559	0.575385
1193	C	0.636266	0.725918	0.60801
1194	C	0.65146	0.764677	0.589597
1195	H	0.626631	0.992751	0.58567
1196	H	0.652376	0.792345	0.612971
1197	H	0.679788	0.727659	0.974782
1198	C	0.586424	0.911382	0.793666
1199	C	0.587853	0.948259	0.759983
1200	C	0.604514	0.986097	0.7746
1201	C	0.617828	0.987895	0.825441
1202	C	0.619886	0.949494	0.857951
1203	C	0.604677	0.910744	0.839546
1204	H	0.629577	0.682628	0.835635
1205	H	0.603776	0.883067	0.862885
1206	H	0.576319	0.947771	0.724848
1207	C	0.586413	0.764018	0.721044
1208	C	0.587888	0.727187	0.75479
1209	C	0.604516	0.689333	0.740138
1210	C	0.617819	0.687524	0.689269
1211	C	0.619873	0.725909	0.656731
1212	C	0.60466	0.764659	0.675136
1213	H	0.629559	0.992788	0.679063
1214	H	0.603748	0.792319	0.651781
1215	H	0.576348	0.727672	0.789932
1216	C	0.669703	0.91134	0.97093
1217	C	0.668238	0.948187	0.004701
1218	C	0.651628	0.986055	0.990091
1219	C	0.638325	0.987851	0.939238
1220	C	0.636289	0.949481	0.906641
1221	C	0.6515	0.910742	0.924991
1222	H	0.62664	0.682636	0.929083
1223	H	0.652398	0.883035	0.901667
1224	H	0.679762	0.9477	0.539841
1225	C	0.836425	0.911343	0.970898
1226	C	0.837875	0.948203	0.004648
1227	C	0.854499	0.986072	0.990012
1228	C	0.867784	0.98787	0.939128
1229	C	0.869837	0.949488	0.906562
1230	C	0.85464	0.910735	0.924952
1231	H	0.879462	0.682669	0.928941
1232	H	0.853747	0.883025	0.90164
1233	H	0.82633	0.947724	0.539782
1234	C	0.919689	0.764044	0.72087
1235	C	0.918275	0.727164	0.754561
1236	C	0.901586	0.689336	0.739984
1237	C	0.888206	0.687584	0.689202
1238	C	0.8862	0.725936	0.656617
1239	C	0.901427	0.764675	0.674998
1240	H	0.876548	0.992785	0.678929
1241	H	0.902322	0.792382	0.651706
1242	H	0.929838	0.727642	0.789665
1243	C	0.919662	0.911375	0.793481
1244	C	0.918255	0.948252	0.759798
1245	C	0.901609	0.986097	0.774434
1246	C	0.88822	0.987836	0.825232
1247	C	0.886229	0.949493	0.857841
1248	C	0.901463	0.910764	0.839448
1249	H	0.876564	0.682631	0.835521
1250	H	0.902373	0.883067	0.862751
1251	H	0.929804	0.947771	0.724663
1252	C	0.836418	0.764069	0.543567
1253	C	0.837845	0.727188	0.509849
1254	C	0.854447	0.689324	0.524493
1255	C	0.867818	0.687586	0.575291
1256	C	0.869802	0.725935	0.607923
1257	C	0.85455	0.764644	0.589589
1258	H	0.879473	0.992794	0.585544
1259	H	0.853711	0.792371	0.612881
1260	H	0.826331	0.727669	0.974699
1261	C	0.686571	0.801215	0.527334
1262	C	0.670597	0.837715	0.507307
1263	C	0.686594	0.874188	0.987234
1264	C	0.7188	0.87489	0.990382
1265	C	0.736551	0.837705	0.50728
1266	C	0.718779	0.80051	0.524143
1267	H	0.728962	0.903201	0.977406
1268	H	0.728935	0.772222	0.537182
1269	H	0.64722	0.837718	0.507319
1270	C	0.56952	0.874224	0.777358
1271	C	0.585505	0.837683	0.757414
1272	C	0.569526	0.801165	0.737411
1273	C	0.537317	0.800479	0.740503
1274	C	0.519553	0.837706	0.7573
1275	C	0.537315	0.874934	0.774124
1276	H	0.52716	0.772181	0.727457
1277	H	0.527154	0.903252	0.787103
1278	H	0.608882	0.837677	0.757437
1279	C	0.819523	0.874191	0.987215
1280	C	0.835503	0.837715	0.507252
1281	C	0.819519	0.801218	0.527294
1282	C	0.78731	0.80051	0.524131
1283	C	0.769549	0.837708	0.507284
1284	C	0.787318	0.874906	0.990417
1285	H	0.777145	0.772215	0.537162
1286	H	0.777165	0.903195	0.977382
1287	H	0.85888	0.837718	0.507232
1288	C	0.936596	0.801199	0.737187
1289	C	0.920602	0.837726	0.757146
1290	C	0.936584	0.874228	0.777204
1291	C	0.968792	0.874941	0.774053
1292	C	0.986556	0.83771	0.757264
1293	C	0.968799	0.800479	0.740448
1294	H	0.978942	0.903245	0.787099
1295	H	0.978956	0.772165	0.727453
1296	H	0.897225	0.837726	0.757115
