data_C2112H1920_2018-02-15_12:28:35
#******************************************
#
# CIF file created by Zeo++
# Zeo++ is an open source package to
# analyze microporous materials
#
#*******************************************

_cell_length_a		46.3649   
_cell_length_b		46.3649   
_cell_length_c		43.6552   
_cell_angle_alpha		90   
_cell_angle_beta		90   
_cell_angle_gamma		120   

_symmetry_space_group_name_H-M		'P1'
_symmetry_Int_Tables_number		1
_symmetry_cell_setting		Monoclinic

loop_
_symmetry_equiv_pos_as_xyz
'+x,+y,+z'

loop_
_atom_site_label
_atom_site_type_symbol
_atom_site_fract_x
_atom_site_fract_y
_atom_site_fract_z
1	C	0.187551	0.054273	0.068194
2	C	0.17968	0.071884	0.041215
3	C	0.218049	0.050172	0.056203
4	C	0.209897	0.028449	0.025425
5	H	0.225165	0.038718	0.074355
6	H	0.239755	0.074723	0.052083
7	C	0.199801	0.046074	0.000701
8	C	0.170726	0.05187	0.01042
9	H	0.22264	0.069156	0.995433
10	H	0.191237	0.031421	0.479602
11	H	0.201272	0.096743	0.037745
12	H	0.158838	0.07557	0.047334
13	C	0.140178	0.016553	0.017349
14	C	0.146978	0.996226	0.042476
15	H	0.132006	0.001933	0.496166
16	H	0.119913	0.020328	0.025081
17	C	0.178085	0.994328	0.031693
18	H	0.171446	0.4787	0.011076
19	H	0.18436	0.482104	0.049754
20	C	0.157477	0.017034	0.072561
21	H	0.134607	0.015488	0.080568
22	H	0.164271	0.504566	0.090064
23	C	0.4425	0.132435	0.068052
24	C	0.424991	0.106977	0.041021
25	C	0.446485	0.166995	0.056093
26	C	0.468233	0.180658	0.025342
27	H	0.457872	0.185554	0.074264
28	H	0.421902	0.164063	0.051957
29	C	0.450725	0.152954	0.000576
30	C	0.445062	0.118121	0.010263
31	H	0.427589	0.152599	0.995291
32	H	0.465416	0.159132	0.479496
33	H	0.400111	0.103643	0.037508
34	H	0.421355	0.082459	0.047096
35	C	0.480413	0.123011	0.017259
36	C	0.50063	0.150125	0.042426
37	H	0.49508	0.129536	0.496099
38	H	0.476708	0.098993	0.024977
39	C	0.50239	0.183073	0.031654
40	H	0.018031	0.192124	0.011045
41	H	0.014565	0.201564	0.049732
42	C	0.479772	0.139717	0.072489
43	H	0.481367	0.118427	0.080532
44	H	0.992155	0.158982	0.090005
45	C	0.364739	0.309761	0.068117
46	C	0.390173	0.317681	0.041073
47	C	0.330124	0.279283	0.056129
48	C	0.316503	0.287499	0.025415
49	H	0.311577	0.272123	0.074308
50	H	0.332972	0.257591	0.051934
51	C	0.344189	0.297658	0.00064
52	C	0.379069	0.326722	0.010352
53	H	0.344449	0.27484	0.995298
54	H	0.33805	0.306252	0.479588
55	H	0.393421	0.296091	0.03751
56	H	0.414723	0.338501	0.047164
57	C	0.374305	0.357245	0.01743
58	C	0.347216	0.350386	0.042614
59	H	0.367824	0.365476	0.496301
60	H	0.398357	0.377482	0.025165
61	C	0.314201	0.319297	0.031801
62	H	0.305187	0.325997	0.011236
63	H	0.295721	0.312967	0.049887
64	C	0.357553	0.339804	0.072632
65	H	0.378861	0.362646	0.08071
66	H	0.338287	0.332928	0.090148
67	C	0.44292	0.309684	0.179616
68	C	0.425422	0.317626	0.206657
69	C	0.446981	0.279156	0.191584
70	C	0.468793	0.28731	0.222305
71	H	0.458353	0.271981	0.173401
72	H	0.42242	0.257487	0.195761
73	C	0.451293	0.297496	0.247082
74	C	0.445542	0.326607	0.237388
75	H	0.428197	0.274696	0.252408
76	H	0.466022	0.306058	0.26814
77	H	0.400562	0.296061	0.2102
78	H	0.421743	0.338479	0.200574
79	C	0.480861	0.357098	0.230351
80	C	0.50107	0.350212	0.205167
81	H	0.495556	0.365286	0.251491
82	H	0.477106	0.37738	0.222628
83	C	0.502924	0.319078	0.215946
84	H	0.018606	0.32572	0.236529
85	H	0.015079	0.312757	0.197854
86	C	0.48017	0.339694	0.175135
87	H	0.481743	0.362562	0.167081
88	H	0.992548	0.332813	0.157612
89	C	0.364589	0.0544	0.179753
90	C	0.39008	0.071957	0.206745
91	C	0.330017	0.050365	0.191746
92	C	0.316409	0.028632	0.222514
93	H	0.311443	0.038949	0.173591
94	H	0.332915	0.074936	0.195877
95	C	0.344146	0.046204	0.24724
96	C	0.378993	0.051917	0.237525
97	H	0.344457	0.06932	0.252502
98	H	0.33802	0.031549	0.268339
99	H	0.393391	0.09683	0.210248
100	H	0.414592	0.075606	0.200623
101	C	0.374131	0.016571	0.230557
102	C	0.346993	0.996308	0.205425
103	H	0.367665	0.001934	0.251732
104	H	0.398142	0.020287	0.2228
105	C	0.314028	0.994487	0.216219
106	H	0.305016	0.478856	0.236836
107	H	0.295527	0.482291	0.198153
108	C	0.357349	0.017141	0.175352
109	H	0.378651	0.015565	0.167322
110	H	0.338079	0.504715	0.157846
111	C	0.187755	0.13254	0.179734
112	C	0.179783	0.107111	0.206795
113	C	0.218292	0.167119	0.191711
114	C	0.210124	0.180787	0.222418
115	H	0.225494	0.185671	0.17353
116	H	0.239946	0.164205	0.195907
117	C	0.199893	0.153101	0.247206
118	C	0.170775	0.118255	0.237502
119	H	0.222672	0.152772	0.252554
120	H	0.191324	0.159283	0.26825
121	H	0.201345	0.103815	0.210365
122	H	0.158932	0.082571	0.200732
123	C	0.140306	0.123101	0.230413
124	C	0.147233	0.1502	0.205214
125	H	0.132104	0.12962	0.251537
126	H	0.120025	0.09907	0.222681
127	C	0.178373	0.183171	0.216017
128	H	0.171721	0.192223	0.236586
129	H	0.184729	0.201652	0.197924
130	C	0.157773	0.139812	0.175193
131	H	0.134915	0.118533	0.167087
132	H	0.164707	0.159088	0.15768
133	C	0.30903	0.443098	0.429796
134	C	0.317008	0.425673	0.456887
135	C	0.278487	0.447138	0.441751
136	C	0.286662	0.469012	0.472432
137	H	0.271276	0.458462	0.423551
138	H	0.256841	0.422572	0.445965
139	C	0.296908	0.451598	0.497247
140	C	0.326033	0.44587	0.487566
141	H	0.274133	0.428489	0.502607
142	H	0.305469	0.466374	0.018279
143	H	0.295448	0.400823	0.460488
144	H	0.337854	0.421969	0.450847
145	C	0.35649	0.48118	0.480429
146	C	0.349545	0.501316	0.455211
147	H	0.364705	0.495929	0.001539
148	H	0.37677	0.477429	0.472693
149	C	0.318403	0.503148	0.466004
150	H	0.325053	0.018871	0.486561
151	H	0.312039	0.015251	0.447899
152	C	0.338998	0.480348	0.42521
153	H	0.361849	0.481917	0.417089
154	H	0.332043	0.992662	0.407686
155	C	0.053803	0.365169	0.429775
156	C	0.071291	0.390575	0.456844
157	C	0.049652	0.330547	0.441757
158	C	0.027778	0.316912	0.472453
159	H	0.038281	0.312008	0.423569
160	H	0.074188	0.333391	0.445972
161	C	0.04527	0.344578	0.497249
162	C	0.051113	0.379467	0.487541
163	H	0.068333	0.344827	0.502628
164	H	0.030499	0.338432	0.01828
165	H	0.096118	0.3938	0.460427
166	H	0.075054	0.415143	0.45078
167	C	0.015843	0.374728	0.480426
168	C	0.995637	0.347651	0.455222
169	H	0.001109	0.368245	0.001543
170	H	0.019672	0.398786	0.472689
171	C	0.99369	0.314628	0.46603
172	H	0.477965	0.305607	0.486586
173	H	0.481545	0.296159	0.447933
174	C	0.016585	0.357994	0.425216
175	H	0.015073	0.379308	0.417105
176	H	0.504214	0.338728	0.4077
177	C	0.13211	0.188261	0.429683
178	C	0.106597	0.180335	0.456651
179	C	0.166657	0.218853	0.441648
180	C	0.180284	0.210827	0.472453
181	H	0.185234	0.225994	0.423498
182	H	0.163723	0.240513	0.445723
183	C	0.152533	0.200678	0.497164
184	C	0.117708	0.171483	0.487475
185	H	0.152185	0.223477	0.502364
186	H	0.158668	0.192212	0.018295
187	H	0.10323	0.20187	0.460097
188	H	0.082111	0.159428	0.450528
189	C	0.122633	0.141021	0.480598
190	C	0.149782	0.147878	0.455483
191	H	0.129123	0.132921	0.001803
192	H	0.098637	0.120686	0.472867
193	C	0.182717	0.17908	0.466243
194	H	0.191742	0.172533	0.486893
195	H	0.20123	0.185364	0.44819
196	C	0.139396	0.158258	0.425375
197	H	0.118103	0.135338	0.417408
198	H	0.158657	0.165072	0.407867
199	C	0.054158	0.188269	0.317976
200	C	0.071697	0.18036	0.290944
201	C	0.050094	0.218791	0.305998
202	C	0.02832	0.210633	0.275255
203	H	0.03869	0.225948	0.324163
204	H	0.074656	0.240469	0.301845
205	C	0.045856	0.200468	0.250493
206	C	0.051604	0.171363	0.260201
207	H	0.06896	0.223269	0.245176
208	H	0.03115	0.191904	0.229423
209	H	0.096549	0.201945	0.287418
210	H	0.075406	0.159523	0.297014
211	C	0.016293	0.140856	0.267231
212	C	0.996046	0.147718	0.292394
213	H	0.001613	0.132662	0.246081
214	H	0.020066	0.12059	0.274964
215	C	0.994196	0.178851	0.281589
216	H	0.478541	0.172213	0.260986
217	H	0.482008	0.18516	0.299657
218	C	0.016916	0.158241	0.32245
219	H	0.015373	0.135393	0.330543
220	H	0.504513	0.16512	0.339948
221	C	0.131946	0.443315	0.318205
222	C	0.10649	0.425767	0.291189
223	C	0.166541	0.447377	0.30625
224	C	0.180186	0.469134	0.275498
225	H	0.185091	0.458788	0.324424
226	H	0.163662	0.422814	0.302115
227	C	0.15249	0.451566	0.250738
228	C	0.117623	0.445823	0.260418
229	H	0.152198	0.428459	0.245465
230	H	0.158639	0.466242	0.229652
231	H	0.103184	0.400897	0.287691
232	H	0.08197	0.422116	0.297284
233	C	0.122449	0.481155	0.267382
234	C	0.149547	0.501418	0.29255
235	H	0.128961	0.495809	0.246216
236	H	0.098412	0.477415	0.275083
237	C	0.182537	0.503268	0.281792
238	H	0.191574	0.018926	0.261195
239	H	0.201016	0.015449	0.299877
240	C	0.139169	0.48057	0.322608
241	H	0.117858	0.482151	0.330593
242	H	0.15841	0.992988	0.340136
243	C	0.309304	0.365142	0.318207
244	C	0.317208	0.390649	0.291244
245	C	0.278793	0.330559	0.306209
246	C	0.286924	0.316984	0.275424
247	H	0.271664	0.31198	0.324353
248	H	0.257098	0.333423	0.30209
249	C	0.297043	0.34472	0.25071
250	C	0.326143	0.379579	0.260439
251	H	0.274218	0.344994	0.245442
252	H	0.305591	0.338616	0.229609
253	H	0.295638	0.393952	0.287778
254	H	0.338068	0.415155	0.297385
255	C	0.356667	0.374768	0.267357
256	C	0.349839	0.347629	0.292476
257	H	0.36482	0.368302	0.24617
258	H	0.376953	0.398798	0.275083
259	C	0.318717	0.314643	0.281692
260	H	0.325349	0.30565	0.261071
261	H	0.312436	0.296141	0.299751
262	C	0.339362	0.357949	0.32256
263	H	0.362248	0.379268	0.330545
264	H	0.332568	0.338693	0.340067
265	C	0.16216	0.088754	0.137532
266	C	0.16208	0.072173	0.110814
267	C	0.191267	0.075151	0.097255
268	C	0.221185	0.10043	0.111115
269	C	0.221245	0.120203	0.136485
270	C	0.191396	0.115215	0.150766
271	H	0.243548	0.105324	0.102183
272	H	0.139147	0.057558	0.101564
273	H	0.139312	0.080374	0.147025
274	H	0.243648	0.137958	0.145113
275	C	0.408012	0.072307	0.137181
276	C	0.424481	0.088818	0.110421
277	C	0.421609	0.115176	0.097075
278	C	0.396698	0.120129	0.111299
279	C	0.377021	0.100418	0.136711
280	C	0.381765	0.07526	0.150688
281	H	0.391971	0.137798	0.10259
282	H	0.438987	0.080456	0.100984
283	H	0.416351	0.057732	0.146495
284	H	0.35951	0.10528	0.14559
285	C	0.42487	0.335226	0.137227
286	C	0.408348	0.335241	0.110501
287	C	0.381962	0.306043	0.097128
288	C	0.377146	0.27615	0.111182
289	C	0.396879	0.27613	0.136553
290	C	0.421997	0.306006	0.150601
291	H	0.359513	0.253773	0.102406
292	H	0.416727	0.358134	0.101122
293	H	0.439422	0.358114	0.146598
294	H	0.392103	0.253741	0.145321
295	C	0.334753	0.408366	0.360961
296	C	0.334638	0.424813	0.387704
297	C	0.305398	0.422119	0.400844
298	C	0.275564	0.397396	0.38644
299	C	0.27564	0.377716	0.36105
300	C	0.305569	0.382254	0.347299
301	H	0.253156	0.392861	0.394957
302	H	0.357462	0.439221	0.39727
303	H	0.357709	0.416657	0.35178
304	H	0.253288	0.360378	0.352
305	C	0.088559	0.425468	0.360807
306	C	0.072081	0.408952	0.387555
307	C	0.074794	0.382463	0.400809
308	C	0.099644	0.377437	0.386552
309	C	0.119372	0.397172	0.361169
310	C	0.114719	0.422413	0.347242
311	H	0.10425	0.359658	0.395188
312	H	0.057665	0.417394	0.397048
313	H	0.080259	0.44009	0.351537
314	H	0.136813	0.392236	0.352242
315	C	0.072359	0.162728	0.360225
316	C	0.088838	0.162683	0.386976
317	C	0.114951	0.191904	0.400585
318	C	0.119537	0.221796	0.386712
319	C	0.09985	0.221807	0.361302
320	C	0.075064	0.191937	0.346994
321	H	0.136917	0.244174	0.395687
322	H	0.080584	0.139754	0.396207
323	H	0.057941	0.139878	0.350717
324	H	0.104442	0.244196	0.352684
325	C	0.127537	0.084921	0.956629
326	C	0.132472	0.062005	0.973752
327	C	0.164463	0.070806	0.985347
328	C	0.191454	0.100102	0.472881
329	C	0.186462	0.121027	0.453346
330	C	0.154395	0.117616	0.451426
331	H	0.215397	0.108589	0.479645
332	H	0.11167	0.040748	0.980548
333	H	0.103521	0.079303	0.953039
334	H	0.20735	0.142413	0.447003
335	C	0.412479	0.042055	0.956365
336	C	0.435301	0.069922	0.973507
337	C	0.426283	0.092932	0.985132
338	C	0.396998	0.090515	0.472524
339	C	0.376451	0.064882	0.452528
340	C	0.379791	0.036146	0.450904
341	H	0.388347	0.105834	0.479311
342	H	0.456559	0.070404	0.980349
343	H	0.418136	0.023695	0.952668
344	H	0.354998	0.064258	0.44627
345	C	0.455025	0.370078	0.956239
346	C	0.427288	0.365095	0.973571
347	C	0.404221	0.333082	0.985196
348	C	0.406511	0.306165	0.472533
349	C	0.432091	0.311191	0.452496
350	C	0.460876	0.343238	0.450913
351	H	0.391153	0.282204	0.479315
352	H	0.426878	0.385878	0.980507
353	H	0.473506	0.394074	0.952758
354	H	0.432649	0.290333	0.44622
355	C	0.412857	0.369986	0.291329
356	C	0.435682	0.364995	0.274121
357	C	0.426756	0.332973	0.262537
358	C	0.39753	0.306053	0.275175
359	C	0.376863	0.311116	0.295033
360	C	0.380165	0.343166	0.296643
361	H	0.388877	0.282107	0.26831
362	H	0.456897	0.38577	0.267208
363	H	0.418467	0.394019	0.294788
364	H	0.355431	0.290159	0.301133
365	C	0.455336	0.084776	0.291177
366	C	0.427462	0.061931	0.274039
367	C	0.404231	0.070762	0.262608
368	C	0.406553	0.09999	0.275264
369	C	0.432498	0.120808	0.294836
370	C	0.461197	0.117454	0.296583
371	H	0.391074	0.108501	0.268649
372	H	0.427012	0.040714	0.267121
373	H	0.473743	0.079143	0.294641
374	H	0.433001	0.142157	0.30133
375	C	0.127275	0.042098	0.291253
376	C	0.132313	0.070002	0.274181
377	C	0.164356	0.093078	0.262638
378	C	0.191228	0.090685	0.275276
379	C	0.186139	0.064995	0.295191
380	C	0.154078	0.036236	0.296751
381	H	0.215205	0.106044	0.268536
382	H	0.111535	0.070464	0.267309
383	H	0.103261	0.023713	0.294907
384	H	0.206976	0.064397	0.301472
385	C	0.369629	0.413434	0.541542
386	C	0.364547	0.436155	0.524263
387	C	0.332485	0.427172	0.512746
388	C	0.305626	0.397964	0.025483
389	C	0.310742	0.377425	0.045458
390	C	0.342819	0.38075	0.046911
391	H	0.281638	0.389329	0.018776
392	H	0.385295	0.457351	0.51727
393	H	0.393644	0.418973	0.544939
394	H	0.289921	0.356007	0.051794
395	C	0.083927	0.455628	0.541363
396	C	0.061048	0.427772	0.524227
397	C	0.069911	0.404611	0.512693
398	C	0.099136	0.406897	0.025317
399	C	0.1199	0.432701	0.045067
400	C	0.116605	0.461456	0.046632
401	H	0.107737	0.391553	0.01848
402	H	0.03984	0.427349	0.517313
403	H	0.078354	0.47408	0.544788
404	H	0.141331	0.433166	0.051147
405	C	0.041423	0.128	0.541212
406	C	0.069288	0.133044	0.524046
407	C	0.092458	0.165092	0.512544
408	C	0.090094	0.191994	0.025148
409	C	0.064176	0.186868	0.044751
410	C	0.035514	0.154792	0.046578
411	H	0.10553	0.215975	0.018481
412	H	0.06977	0.11228	0.517171
413	H	0.023051	0.103957	0.544726
414	H	0.063642	0.207708	0.051208
415	C	0.084319	0.127975	0.206346
416	C	0.061449	0.132982	0.223447
417	C	0.070415	0.164995	0.235076
418	C	0.099704	0.191901	0.222506
419	C	0.12032	0.186868	0.202557
420	C	0.116992	0.154804	0.200937
421	H	0.108315	0.215857	0.229311
422	H	0.040193	0.11219	0.230268
423	H	0.078693	0.103972	0.202629
424	H	0.141781	0.207715	0.196346
425	C	0.041747	0.41323	0.206196
426	C	0.069461	0.435976	0.223558
427	C	0.092472	0.427003	0.235276
428	C	0.090153	0.397752	0.222688
429	C	0.064616	0.377208	0.202617
430	C	0.035866	0.380521	0.200926
431	H	0.105468	0.389123	0.229544
432	H	0.069894	0.457197	0.230438
433	H	0.023294	0.418772	0.202644
434	H	0.06404	0.355768	0.196394
435	C	0.369353	0.455638	0.206448
436	C	0.364414	0.427837	0.223653
437	C	0.332436	0.404763	0.235344
438	C	0.305467	0.407079	0.222841
439	C	0.310449	0.43279	0.202994
440	C	0.342515	0.461505	0.201269
441	H	0.281552	0.391797	0.229796
442	H	0.385211	0.427386	0.230474
443	H	0.393372	0.474055	0.202914
444	H	0.289471	0.433269	0.196992
445	C	0.256147	0.479711	0.01756
446	C	0.244511	0.999846	0.030501
447	C	0.234883	0.018878	0.012294
448	C	0.240302	0.017694	0.480207
449	C	0.251981	0.49759	0.467289
450	C	0.261635	0.47857	0.485471
451	H	0.235594	0.031398	0.464923
452	H	0.240632	0.998365	0.053652
453	H	0.260811	0.465966	0.032838
454	H	0.255771	0.498989	0.444124
455	C	0.016922	0.275697	0.01759
456	C	0.49677	0.243926	0.030527
457	C	0.477804	0.215264	0.012328
458	C	0.478937	0.221851	0.480232
459	C	0.999092	0.253621	0.467292
460	C	0.018074	0.282282	0.485491
461	H	0.465195	0.20344	0.464957
462	H	0.498246	0.241537	0.05368
463	H	0.030668	0.294101	0.032869
464	H	0.997629	0.256025	0.44414
465	C	0.22145	0.241296	0.017641
466	C	0.253225	0.252887	0.030557
467	C	0.281894	0.262552	0.012361
468	C	0.275261	0.257158	0.480264
469	C	0.243489	0.245562	0.467335
470	C	0.214831	0.235899	0.485555
471	H	0.29366	0.261832	0.464974
472	H	0.25563	0.256717	0.053714
473	H	0.203039	0.236589	0.032929
474	H	0.241083	0.241704	0.444183
475	C	0.017523	0.241033	0.230069
476	C	0.497349	0.25262	0.217123
477	C	0.478412	0.262321	0.235356
478	C	0.479523	0.256852	0.267444
479	C	0.999697	0.245247	0.280356
480	C	0.01875	0.235631	0.262161
481	H	0.465795	0.261531	0.282725
482	H	0.498806	0.256488	0.193972
483	H	0.031247	0.236349	0.214786
484	H	0.998248	0.241411	0.303513
485	C	0.221419	0.479925	0.230369
486	C	0.25319	9.1e-05	0.217431
487	C	0.281853	0.019097	0.235642
488	C	0.275246	0.01789	0.267728
489	C	0.243457	0.497772	0.280643
490	C	0.214786	0.478727	0.262461
491	H	0.293662	0.031589	0.283013
492	H	0.255586	0.998634	0.194278
493	H	0.203018	0.46619	0.215084
494	H	0.241062	0.499169	0.303806
495	C	0.256487	0.275836	0.230266
496	C	0.244824	0.244072	0.217297
497	C	0.235126	0.215388	0.235463
498	C	0.240621	0.221944	0.267563
499	C	0.252261	0.253701	0.280537
500	C	0.261939	0.282381	0.26237
501	H	0.235963	0.203517	0.282816
502	H	0.240961	0.241711	0.194143
503	H	0.261163	0.294263	0.215012
504	H	0.256165	0.256079	0.303685
505	C	0.187551	0.054273	0.568194
506	C	0.17968	0.071884	0.541214
507	C	0.218049	0.050172	0.556202
508	C	0.209897	0.028449	0.525425
509	H	0.225165	0.038718	0.574356
510	H	0.239755	0.074723	0.552083
511	C	0.199801	0.046074	0.500701
512	C	0.170726	0.05187	0.510418
513	H	0.22264	0.069156	0.495433
514	H	0.191237	0.031421	0.979602
515	H	0.201272	0.096743	0.537744
516	H	0.158838	0.07557	0.547335
517	C	0.140178	0.016553	0.51735
518	C	0.146978	0.996226	0.542476
519	H	0.132006	0.001933	0.996164
520	H	0.119913	0.020328	0.525081
521	C	0.178085	0.994328	0.531692
522	H	0.171446	0.4787	0.511076
523	H	0.18436	0.482104	0.549754
524	C	0.157477	0.017034	0.57256
525	H	0.134607	0.015488	0.580568
526	H	0.164271	0.504566	0.590063
527	C	0.4425	0.132435	0.568052
528	C	0.424991	0.106977	0.541022
529	C	0.446485	0.166995	0.556092
530	C	0.468233	0.180658	0.525342
531	H	0.457872	0.185554	0.574264
532	H	0.421902	0.164063	0.551957
533	C	0.450725	0.152954	0.500575
534	C	0.445062	0.118121	0.510263
535	H	0.427589	0.152599	0.495291
536	H	0.465416	0.159132	0.979494
537	H	0.400111	0.103643	0.537508
538	H	0.421355	0.082459	0.547094
539	C	0.480413	0.123011	0.517258
540	C	0.50063	0.150125	0.542426
541	H	0.49508	0.129536	0.9961
542	H	0.476708	0.098993	0.524978
543	C	0.50239	0.183073	0.531653
544	H	0.018031	0.192124	0.511044
545	H	0.014565	0.201564	0.549731
546	C	0.479772	0.139717	0.572489
547	H	0.481367	0.118427	0.580531
548	H	0.992155	0.158982	0.590006
549	C	0.364739	0.309761	0.568116
550	C	0.390173	0.317681	0.541072
551	C	0.330124	0.279283	0.556129
552	C	0.316503	0.287499	0.525415
553	H	0.311577	0.272123	0.574308
554	H	0.332972	0.257591	0.551935
555	C	0.344189	0.297658	0.500639
556	C	0.379069	0.326722	0.510352
557	H	0.344449	0.27484	0.495298
558	H	0.33805	0.306252	0.979588
559	H	0.393421	0.296091	0.53751
560	H	0.414723	0.338501	0.547163
561	C	0.374305	0.357245	0.51743
562	C	0.347216	0.350386	0.542614
563	H	0.367824	0.365476	0.996301
564	H	0.398357	0.377482	0.525166
565	C	0.314201	0.319297	0.531802
566	H	0.305187	0.325997	0.511236
567	H	0.295721	0.312967	0.549887
568	C	0.357553	0.339804	0.572631
569	H	0.378861	0.362646	0.58071
570	H	0.338287	0.332928	0.590148
571	C	0.44292	0.309684	0.679615
572	C	0.425422	0.317626	0.706656
573	C	0.446981	0.279156	0.691584
574	C	0.468793	0.28731	0.722304
575	H	0.458353	0.271981	0.6734
576	H	0.42242	0.257487	0.695762
577	C	0.451293	0.297496	0.747082
578	C	0.445542	0.326607	0.737388
579	H	0.428197	0.274696	0.752408
580	H	0.466022	0.306058	0.76814
581	H	0.400562	0.296061	0.7102
582	H	0.421743	0.338479	0.700574
583	C	0.480861	0.357098	0.730351
584	C	0.50107	0.350212	0.705167
585	H	0.495556	0.365286	0.751492
586	H	0.477106	0.37738	0.722627
587	C	0.502924	0.319078	0.715945
588	H	0.018606	0.32572	0.736527
589	H	0.015079	0.312757	0.697853
590	C	0.48017	0.339694	0.675134
591	H	0.481743	0.362562	0.66708
592	H	0.992548	0.332813	0.657613
593	C	0.364589	0.0544	0.679752
594	C	0.39008	0.071957	0.706746
595	C	0.330017	0.050365	0.691746
596	C	0.316409	0.028632	0.722515
597	H	0.311443	0.038949	0.67359
598	H	0.332915	0.074936	0.695876
599	C	0.344146	0.046204	0.74724
600	C	0.378993	0.051917	0.737525
601	H	0.344457	0.06932	0.7525
602	H	0.33802	0.031549	0.76834
603	H	0.393391	0.09683	0.710248
604	H	0.414592	0.075606	0.700623
605	C	0.374131	0.016571	0.730557
606	C	0.346993	0.996308	0.705424
607	H	0.367665	0.001934	0.751732
608	H	0.398142	0.020287	0.722801
609	C	0.314028	0.994487	0.71622
610	H	0.305016	0.478856	0.736836
611	H	0.295527	0.482291	0.698153
612	C	0.357349	0.017141	0.675352
613	H	0.378651	0.015565	0.667321
614	H	0.338079	0.504715	0.657846
615	C	0.187755	0.13254	0.679734
616	C	0.179783	0.107111	0.706794
617	C	0.218292	0.167119	0.69171
618	C	0.210124	0.180787	0.722418
619	H	0.225494	0.185671	0.673528
620	H	0.239946	0.164205	0.695906
621	C	0.199893	0.153101	0.747206
622	C	0.170775	0.118255	0.7375
623	H	0.222672	0.152772	0.752555
624	H	0.191324	0.159283	0.76825
625	H	0.201345	0.103815	0.710365
626	H	0.158932	0.082571	0.700733
627	C	0.140306	0.123101	0.730413
628	C	0.147233	0.1502	0.705213
629	H	0.132104	0.12962	0.751537
630	H	0.120025	0.09907	0.72268
631	C	0.178373	0.183171	0.716016
632	H	0.171721	0.192223	0.736586
633	H	0.184729	0.201652	0.697924
634	C	0.157773	0.139812	0.675194
635	H	0.134915	0.118533	0.667087
636	H	0.164707	0.159088	0.657679
637	C	0.30903	0.443098	0.929796
638	C	0.317008	0.425673	0.956888
639	C	0.278487	0.447138	0.941749
640	C	0.286662	0.469012	0.972432
641	H	0.271276	0.458462	0.923551
642	H	0.256841	0.422572	0.945966
643	C	0.296908	0.451598	0.997247
644	C	0.326033	0.44587	0.987567
645	H	0.274133	0.428489	0.002607
646	H	0.305469	0.466374	0.518278
647	H	0.295448	0.400823	0.960489
648	H	0.337854	0.421969	0.950847
649	C	0.35649	0.48118	0.980429
650	C	0.349545	0.501316	0.955209
651	H	0.364705	0.495929	0.50154
652	H	0.37677	0.477429	0.972693
653	C	0.318403	0.503148	0.966005
654	H	0.325053	0.018871	0.986561
655	H	0.312039	0.015251	0.947899
656	C	0.338998	0.480348	0.92521
657	H	0.361849	0.481917	0.917087
658	H	0.332043	0.992662	0.907684
659	C	0.053803	0.365169	0.929775
660	C	0.071291	0.390575	0.956844
661	C	0.049652	0.330547	0.941758
662	C	0.027778	0.316912	0.972451
663	H	0.038281	0.312008	0.92357
664	H	0.074188	0.333391	0.945973
665	C	0.04527	0.344578	0.997249
666	C	0.051113	0.379467	0.987542
667	H	0.068333	0.344827	0.002628
668	H	0.030499	0.338432	0.51828
669	H	0.096118	0.3938	0.960427
670	H	0.075054	0.415143	0.950778
671	C	0.015843	0.374728	0.980427
672	C	0.995637	0.347651	0.955222
673	H	0.001109	0.368245	0.501542
674	H	0.019672	0.398786	0.972689
675	C	0.99369	0.314628	0.96603
676	H	0.477965	0.305607	0.986586
677	H	0.481545	0.296159	0.947931
678	C	0.016585	0.357994	0.925217
679	H	0.015073	0.379308	0.917103
680	H	0.504214	0.338728	0.907698
681	C	0.13211	0.188261	0.929684
682	C	0.106597	0.180335	0.956649
683	C	0.166657	0.218853	0.941646
684	C	0.180284	0.210827	0.972453
685	H	0.185234	0.225994	0.923499
686	H	0.163723	0.240513	0.945723
687	C	0.152533	0.200678	0.997162
688	C	0.117708	0.171483	0.987473
689	H	0.152185	0.223477	0.002364
690	H	0.158668	0.192212	0.518294
691	H	0.10323	0.20187	0.960097
692	H	0.082111	0.159428	0.950527
693	C	0.122633	0.141021	0.980599
694	C	0.149782	0.147878	0.955484
695	H	0.129123	0.132921	0.501803
696	H	0.098637	0.120686	0.972865
697	C	0.182717	0.17908	0.966243
698	H	0.191742	0.172533	0.986893
699	H	0.20123	0.185364	0.94819
700	C	0.139396	0.158258	0.925375
701	H	0.118103	0.135338	0.917408
702	H	0.158657	0.165072	0.907865
703	C	0.054158	0.188269	0.817976
704	C	0.071697	0.18036	0.790944
705	C	0.050094	0.218791	0.805996
706	C	0.02832	0.210633	0.775253
707	H	0.03869	0.225948	0.824163
708	H	0.074656	0.240469	0.801843
709	C	0.045856	0.200468	0.750491
710	C	0.051604	0.171363	0.760201
711	H	0.06896	0.223269	0.745176
712	H	0.03115	0.191904	0.729421
713	H	0.096549	0.201945	0.787419
714	H	0.075406	0.159523	0.797014
715	C	0.016293	0.140856	0.767231
716	C	0.996046	0.147718	0.792394
717	H	0.001613	0.132662	0.746081
718	H	0.020066	0.12059	0.774964
719	C	0.994196	0.178851	0.781589
720	H	0.478541	0.172213	0.760987
721	H	0.482008	0.18516	0.799656
722	C	0.016916	0.158241	0.82245
723	H	0.015373	0.135393	0.830543
724	H	0.504513	0.16512	0.839949
725	C	0.131946	0.443315	0.818205
726	C	0.10649	0.425767	0.791189
727	C	0.166541	0.447377	0.80625
728	C	0.180186	0.469134	0.775496
729	H	0.185091	0.458788	0.824425
730	H	0.163662	0.422814	0.802116
731	C	0.15249	0.451566	0.750738
732	C	0.117623	0.445823	0.760418
733	H	0.152198	0.428459	0.745465
734	H	0.158639	0.466242	0.729652
735	H	0.103184	0.400897	0.787691
736	H	0.08197	0.422116	0.797285
737	C	0.122449	0.481155	0.767382
738	C	0.149547	0.501418	0.792548
739	H	0.128961	0.495809	0.746216
740	H	0.098412	0.477415	0.775083
741	C	0.182537	0.503268	0.781793
742	H	0.191574	0.018926	0.761195
743	H	0.201016	0.015449	0.799878
744	C	0.139169	0.48057	0.822606
745	H	0.117858	0.482151	0.830593
746	H	0.15841	0.992988	0.840136
747	C	0.309304	0.365142	0.818208
748	C	0.317208	0.390649	0.791244
749	C	0.278793	0.330559	0.806207
750	C	0.286924	0.316984	0.775422
751	H	0.271664	0.31198	0.824354
752	H	0.257098	0.333423	0.80209
753	C	0.297043	0.34472	0.750708
754	C	0.326143	0.379579	0.760439
755	H	0.274218	0.344994	0.745442
756	H	0.305591	0.338616	0.729609
757	H	0.295638	0.393952	0.787778
758	H	0.338068	0.415155	0.797385
759	C	0.356667	0.374768	0.767357
760	C	0.349839	0.347629	0.792477
761	H	0.36482	0.368302	0.74617
762	H	0.376953	0.398798	0.775083
763	C	0.318717	0.314643	0.78169
764	H	0.325349	0.30565	0.761069
765	H	0.312436	0.296141	0.799749
766	C	0.339362	0.357949	0.82256
767	H	0.362248	0.379268	0.830543
768	H	0.332568	0.338693	0.840068
769	C	0.16216	0.088754	0.637533
770	C	0.16208	0.072173	0.610814
771	C	0.191267	0.075151	0.597256
772	C	0.221185	0.10043	0.611114
773	C	0.221245	0.120203	0.636486
774	C	0.191396	0.115215	0.650766
775	H	0.243548	0.105324	0.602183
776	H	0.139147	0.057558	0.601564
777	H	0.139312	0.080374	0.647025
778	H	0.243648	0.137958	0.645113
779	C	0.408012	0.072307	0.63718
780	C	0.424481	0.088818	0.61042
781	C	0.421609	0.115176	0.597075
782	C	0.396698	0.120129	0.6113
783	C	0.377021	0.100418	0.63671
784	C	0.381765	0.07526	0.650688
785	H	0.391971	0.137798	0.602591
786	H	0.438987	0.080456	0.600983
787	H	0.416351	0.057732	0.646494
788	H	0.35951	0.10528	0.645589
789	C	0.42487	0.335226	0.637226
790	C	0.408348	0.335241	0.6105
791	C	0.381962	0.306043	0.597127
792	C	0.377146	0.27615	0.611181
793	C	0.396879	0.27613	0.636552
794	C	0.421997	0.306006	0.650601
795	H	0.359513	0.253773	0.602405
796	H	0.416727	0.358134	0.601122
797	H	0.439422	0.358114	0.646597
798	H	0.392103	0.253741	0.645321
799	C	0.334753	0.408366	0.860959
800	C	0.334638	0.424813	0.887702
801	C	0.305398	0.422119	0.900844
802	C	0.275564	0.397396	0.88644
803	C	0.27564	0.377716	0.861048
804	C	0.305569	0.382254	0.847299
805	H	0.253156	0.392861	0.894957
806	H	0.357462	0.439221	0.897268
807	H	0.357709	0.416657	0.851778
808	H	0.253288	0.360378	0.851998
809	C	0.088559	0.425468	0.860807
810	C	0.072081	0.408952	0.887556
811	C	0.074794	0.382463	0.900807
812	C	0.099644	0.377437	0.886552
813	C	0.119372	0.397172	0.861169
814	C	0.114719	0.422413	0.847242
815	H	0.10425	0.359658	0.895188
816	H	0.057665	0.417394	0.897048
817	H	0.080259	0.44009	0.851537
818	H	0.136813	0.392236	0.85224
819	C	0.072359	0.162728	0.860226
820	C	0.088838	0.162683	0.886976
821	C	0.114951	0.191904	0.900585
822	C	0.119537	0.221796	0.886713
823	C	0.09985	0.221807	0.861302
824	C	0.075064	0.191937	0.846995
825	H	0.136917	0.244174	0.895685
826	H	0.080584	0.139754	0.896208
827	H	0.057941	0.139878	0.850717
828	H	0.104442	0.244196	0.852685
829	C	0.127537	0.084921	0.456629
830	C	0.132472	0.062005	0.473751
831	C	0.164463	0.070806	0.485347
832	C	0.191454	0.100102	0.972881
833	C	0.186462	0.121027	0.953346
834	C	0.154395	0.117616	0.951424
835	H	0.215397	0.108589	0.979646
836	H	0.11167	0.040748	0.48055
837	H	0.103521	0.079303	0.453039
838	H	0.20735	0.142413	0.947003
839	C	0.412479	0.042055	0.456367
840	C	0.435301	0.069922	0.473506
841	C	0.426283	0.092932	0.485134
842	C	0.396998	0.090515	0.972524
843	C	0.376451	0.064882	0.952529
844	C	0.379791	0.036146	0.950904
845	H	0.388347	0.105834	0.979311
846	H	0.456559	0.070404	0.480349
847	H	0.418136	0.023695	0.45267
848	H	0.354998	0.064258	0.94627
849	C	0.455025	0.370078	0.456239
850	C	0.427288	0.365095	0.47357
851	C	0.404221	0.333082	0.485198
852	C	0.406511	0.306165	0.972533
853	C	0.432091	0.311191	0.952496
854	C	0.460876	0.343238	0.950914
855	H	0.391153	0.282204	0.979316
856	H	0.426878	0.385878	0.480507
857	H	0.473506	0.394074	0.452757
858	H	0.432649	0.290333	0.94622
859	C	0.412857	0.369986	0.791329
860	C	0.435682	0.364995	0.774119
861	C	0.426756	0.332973	0.762537
862	C	0.39753	0.306053	0.775175
863	C	0.376863	0.311116	0.795033
864	C	0.380165	0.343166	0.796643
865	H	0.388877	0.282107	0.76831
866	H	0.456897	0.38577	0.767208
867	H	0.418467	0.394019	0.794788
868	H	0.355431	0.290159	0.801131
869	C	0.455336	0.084776	0.791178
870	C	0.427462	0.061931	0.774039
871	C	0.404231	0.070762	0.762608
872	C	0.406553	0.09999	0.775264
873	C	0.432498	0.120808	0.794836
874	C	0.461197	0.117454	0.796584
875	H	0.391074	0.108501	0.768649
876	H	0.427012	0.040714	0.767121
877	H	0.473743	0.079143	0.794641
878	H	0.433001	0.142157	0.80133
879	C	0.127275	0.042098	0.791253
880	C	0.132313	0.070002	0.774181
881	C	0.164356	0.093078	0.762638
882	C	0.191228	0.090685	0.775274
883	C	0.186139	0.064995	0.795191
884	C	0.154078	0.036236	0.796751
885	H	0.215205	0.106044	0.768534
886	H	0.111535	0.070464	0.767307
887	H	0.103261	0.023713	0.794907
888	H	0.206976	0.064397	0.801472
889	C	0.369629	0.413434	0.041542
890	C	0.364547	0.436155	0.024264
891	C	0.332485	0.427172	0.012746
892	C	0.305626	0.397964	0.525482
893	C	0.310742	0.377425	0.545457
894	C	0.342819	0.38075	0.546911
895	H	0.281638	0.389329	0.518777
896	H	0.385295	0.457351	0.01727
897	H	0.393644	0.418973	0.044939
898	H	0.289921	0.356007	0.551793
899	C	0.083927	0.455628	0.041363
900	C	0.061048	0.427772	0.024227
901	C	0.069911	0.404611	0.012693
902	C	0.099136	0.406897	0.525317
903	C	0.1199	0.432701	0.545067
904	C	0.116605	0.461456	0.546632
905	H	0.107737	0.391553	0.518479
906	H	0.03984	0.427349	0.017314
907	H	0.078354	0.47408	0.044788
908	H	0.141331	0.433166	0.551147
909	C	0.041423	0.128	0.041211
910	C	0.069288	0.133044	0.024047
911	C	0.092458	0.165092	0.012545
912	C	0.090094	0.191994	0.525147
913	C	0.064176	0.186868	0.544751
914	C	0.035514	0.154792	0.546577
915	H	0.10553	0.215975	0.518481
916	H	0.06977	0.11228	0.017171
917	H	0.023051	0.103957	0.044726
918	H	0.063642	0.207708	0.551208
919	C	0.084319	0.127975	0.706345
920	C	0.061449	0.132982	0.723447
921	C	0.070415	0.164995	0.735077
922	C	0.099704	0.191901	0.722505
923	C	0.12032	0.186868	0.702558
924	C	0.116992	0.154804	0.700936
925	H	0.108315	0.215857	0.729311
926	H	0.040193	0.11219	0.730269
927	H	0.078693	0.103972	0.702629
928	H	0.141781	0.207715	0.696346
929	C	0.041747	0.41323	0.706196
930	C	0.069461	0.435976	0.723557
931	C	0.092472	0.427003	0.735276
932	C	0.090153	0.397752	0.722689
933	C	0.064616	0.377208	0.702615
934	C	0.035866	0.380521	0.700925
935	H	0.105468	0.389123	0.729545
936	H	0.069894	0.457197	0.730438
937	H	0.023294	0.418772	0.702645
938	H	0.06404	0.355768	0.696394
939	C	0.369353	0.455638	0.706448
940	C	0.364414	0.427837	0.723653
941	C	0.332436	0.404763	0.735345
942	C	0.305467	0.407079	0.722842
943	C	0.310449	0.43279	0.702993
944	C	0.342515	0.461505	0.701269
945	H	0.281552	0.391797	0.729797
946	H	0.385211	0.427386	0.730475
947	H	0.393372	0.474055	0.702913
948	H	0.289471	0.433269	0.696992
949	C	0.256147	0.479711	0.517558
950	C	0.244511	0.999846	0.530501
951	C	0.234883	0.018878	0.512294
952	C	0.240302	0.017694	0.980207
953	C	0.251981	0.49759	0.967287
954	C	0.261635	0.47857	0.985469
955	H	0.235594	0.031398	0.964921
956	H	0.240632	0.998365	0.553653
957	H	0.260811	0.465966	0.532837
958	H	0.255771	0.498989	0.944124
959	C	0.016922	0.275697	0.51759
960	C	0.49677	0.243926	0.530526
961	C	0.477804	0.215264	0.512329
962	C	0.478937	0.221851	0.980232
963	C	0.999092	0.253621	0.967292
964	C	0.018074	0.282282	0.985491
965	H	0.465195	0.20344	0.964955
966	H	0.498246	0.241537	0.55368
967	H	0.030668	0.294101	0.532869
968	H	0.997629	0.256025	0.94414
969	C	0.22145	0.241296	0.517641
970	C	0.253225	0.252887	0.530558
971	C	0.281894	0.262552	0.512361
972	C	0.275261	0.257158	0.980264
973	C	0.243489	0.245562	0.967336
974	C	0.214831	0.235899	0.985556
975	H	0.29366	0.261832	0.964974
976	H	0.25563	0.256717	0.553714
977	H	0.203039	0.236589	0.532929
978	H	0.241083	0.241704	0.944181
979	C	0.017523	0.241033	0.730069
980	C	0.497349	0.25262	0.717122
981	C	0.478412	0.262321	0.735354
982	C	0.479523	0.256852	0.767442
983	C	0.999697	0.245247	0.780357
984	C	0.01875	0.235631	0.762162
985	H	0.465795	0.261531	0.782725
986	H	0.498806	0.256488	0.69397
987	H	0.031247	0.236349	0.714786
988	H	0.998248	0.241411	0.803513
989	C	0.221419	0.479925	0.730369
990	C	0.25319	9.1e-05	0.717432
991	C	0.281853	0.019097	0.735642
992	C	0.275246	0.01789	0.767728
993	C	0.243457	0.497772	0.780641
994	C	0.214786	0.478727	0.762462
995	H	0.293662	0.031589	0.783014
996	H	0.255586	0.998634	0.694277
997	H	0.203018	0.46619	0.715084
998	H	0.241062	0.499169	0.803804
999	C	0.256487	0.275836	0.730266
1000	C	0.244824	0.244072	0.717296
1001	C	0.235126	0.215388	0.735464
1002	C	0.240621	0.221944	0.767561
1003	C	0.252261	0.253701	0.780537
1004	C	0.261939	0.282381	0.762368
1005	H	0.235963	0.203517	0.782814
1006	H	0.240961	0.241711	0.694142
1007	H	0.261163	0.294263	0.71501
1008	H	0.256165	0.256079	0.803685
1009	C	0.18755	0.554273	0.068194
1010	C	0.17968	0.571883	0.041215
1011	C	0.218048	0.550171	0.056203
1012	C	0.209897	0.528449	0.025425
1013	H	0.225164	0.538717	0.074355
1014	H	0.239755	0.574724	0.052083
1015	C	0.1998	0.546074	0.000701
1016	C	0.170725	0.551869	0.01042
1017	H	0.22264	0.569156	0.995433
1018	H	0.191237	0.53142	0.479602
1019	H	0.201272	0.596743	0.037745
1020	H	0.158838	0.575569	0.047334
1021	C	0.140177	0.516552	0.017349
1022	C	0.146979	0.496227	0.042476
1023	H	0.132006	0.501933	0.496166
1024	H	0.119913	0.520328	0.025081
1025	C	0.178086	0.494327	0.031693
1026	H	0.171446	0.978698	0.011076
1027	H	0.18436	0.982105	0.049754
1028	C	0.157476	0.517033	0.072561
1029	H	0.134607	0.515489	0.080568
1030	H	0.164272	0.004566	0.090064
1031	C	0.442499	0.632433	0.068052
1032	C	0.42499	0.606976	0.041021
1033	C	0.446486	0.666996	0.056093
1034	C	0.468233	0.680659	0.025342
1035	H	0.45787	0.685553	0.074264
1036	H	0.421901	0.664062	0.051957
1037	C	0.450724	0.652952	0.000576
1038	C	0.44506	0.618121	0.010263
1039	H	0.427589	0.652599	0.995291
1040	H	0.465415	0.659131	0.479496
1041	H	0.400111	0.603644	0.037508
1042	H	0.421355	0.58246	0.047096
1043	C	0.480412	0.623012	0.017259
1044	C	0.500629	0.650126	0.042426
1045	H	0.495078	0.629535	0.496099
1046	H	0.476708	0.598994	0.024977
1047	C	0.50239	0.683072	0.031654
1048	H	0.018031	0.692125	0.011045
1049	H	0.014563	0.701564	0.049732
1050	C	0.479771	0.639716	0.072489
1051	H	0.481367	0.618427	0.080532
1052	H	0.992155	0.658982	0.090005
1053	C	0.364739	0.809762	0.068117
1054	C	0.390173	0.817682	0.041073
1055	C	0.330124	0.779284	0.056129
1056	C	0.316503	0.7875	0.025415
1057	H	0.311577	0.772124	0.074308
1058	H	0.332972	0.757592	0.051934
1059	C	0.344188	0.797656	0.00064
1060	C	0.37907	0.826722	0.010352
1061	H	0.344449	0.774841	0.995298
1062	H	0.33805	0.806253	0.479588
1063	H	0.393419	0.796089	0.03751
1064	H	0.414722	0.838499	0.047164
1065	C	0.374303	0.857243	0.01743
1066	C	0.347214	0.850384	0.042614
1067	H	0.367823	0.865476	0.496301
1068	H	0.398357	0.877483	0.025165
1069	C	0.314201	0.819298	0.031801
1070	H	0.305188	0.825997	0.011236
1071	H	0.295721	0.812967	0.049887
1072	C	0.357551	0.839802	0.072632
1073	H	0.378861	0.862647	0.08071
1074	H	0.338286	0.832926	0.090148
1075	C	0.442918	0.809682	0.179616
1076	C	0.425422	0.817627	0.206657
1077	C	0.44698	0.779154	0.191584
1078	C	0.468792	0.78731	0.222305
1079	H	0.458352	0.771982	0.173401
1080	H	0.422418	0.757485	0.195761
1081	C	0.451293	0.797496	0.247082
1082	C	0.445541	0.826605	0.237388
1083	H	0.428196	0.774696	0.252408
1084	H	0.466022	0.806059	0.26814
1085	H	0.40056	0.796059	0.2102
1086	H	0.421744	0.83848	0.200574
1087	C	0.48086	0.857098	0.230351
1088	C	0.50107	0.850212	0.205167
1089	H	0.495555	0.865284	0.251491
1090	H	0.477105	0.877378	0.222628
1091	C	0.502923	0.819079	0.215946
1092	H	0.018607	0.825721	0.236529
1093	H	0.01508	0.812758	0.197854
1094	C	0.480169	0.839692	0.175135
1095	H	0.481743	0.862562	0.167081
1096	H	0.992547	0.832811	0.157612
1097	C	0.364588	0.5544	0.179753
1098	C	0.39008	0.571958	0.206745
1099	C	0.330017	0.550365	0.191746
1100	C	0.316409	0.528633	0.222514
1101	H	0.311444	0.538949	0.173591
1102	H	0.332915	0.574936	0.195877
1103	C	0.344146	0.546204	0.24724
1104	C	0.378992	0.551917	0.237525
1105	H	0.344456	0.56932	0.252502
1106	H	0.338022	0.53155	0.268339
1107	H	0.393392	0.59683	0.210248
1108	H	0.414591	0.575606	0.200623
1109	C	0.374131	0.51657	0.230557
1110	C	0.346992	0.496307	0.205425
1111	H	0.367664	0.501933	0.251732
1112	H	0.398141	0.520288	0.2228
1113	C	0.314028	0.494487	0.216219
1114	H	0.305016	0.978857	0.236836
1115	H	0.295527	0.982291	0.198153
1116	C	0.357349	0.51714	0.175352
1117	H	0.378652	0.515566	0.167322
1118	H	0.33808	0.004716	0.157846
1119	C	0.187755	0.632541	0.179734
1120	C	0.179783	0.60711	0.206795
1121	C	0.218291	0.667118	0.191711
1122	C	0.210123	0.680786	0.222418
1123	H	0.225493	0.68567	0.17353
1124	H	0.239945	0.664204	0.195907
1125	C	0.199892	0.653099	0.247206
1126	C	0.170775	0.618255	0.237502
1127	H	0.222672	0.652771	0.252554
1128	H	0.191323	0.659283	0.26825
1129	H	0.201345	0.603816	0.210365
1130	H	0.158932	0.582572	0.200732
1131	C	0.140306	0.623102	0.230413
1132	C	0.147233	0.6502	0.205214
1133	H	0.132103	0.629619	0.251537
1134	H	0.120024	0.599069	0.222681
1135	C	0.178373	0.683172	0.216017
1136	H	0.17172	0.692222	0.236586
1137	H	0.184728	0.701651	0.197924
1138	C	0.157774	0.639813	0.175193
1139	H	0.134916	0.618534	0.167087
1140	H	0.164707	0.659089	0.15768
1141	C	0.309029	0.943096	0.429796
1142	C	0.317008	0.925673	0.456887
1143	C	0.278487	0.947138	0.441751
1144	C	0.286661	0.96901	0.472432
1145	H	0.271276	0.958463	0.423551
1146	H	0.256841	0.922573	0.445965
1147	C	0.296907	0.951596	0.497247
1148	C	0.326033	0.945871	0.487566
1149	H	0.274133	0.92849	0.502607
1150	H	0.305469	0.966375	0.018279
1151	H	0.295448	0.900823	0.460488
1152	H	0.337854	0.92197	0.450847
1153	C	0.35649	0.981181	0.480429
1154	C	0.349545	0.001316	0.455211
1155	H	0.364705	0.995929	0.001539
1156	H	0.37677	0.97743	0.472693
1157	C	0.318402	0.003148	0.466004
1158	H	0.325053	0.518871	0.486561
1159	H	0.312038	0.515252	0.447899
1160	C	0.338998	0.980349	0.42521
1161	H	0.361849	0.981918	0.417089
1162	H	0.332044	0.492664	0.407686
1163	C	0.053802	0.86517	0.429775
1164	C	0.07129	0.890575	0.456844
1165	C	0.049651	0.830547	0.441757
1166	C	0.027777	0.816912	0.472453
1167	H	0.038281	0.812008	0.423569
1168	H	0.074188	0.833392	0.445972
1169	C	0.04527	0.844579	0.497249
1170	C	0.051112	0.879465	0.487541
1171	H	0.068333	0.844828	0.502628
1172	H	0.030499	0.838432	0.01828
1173	H	0.096119	0.8938	0.460427
1174	H	0.075052	0.915141	0.45078
1175	C	0.015842	0.874728	0.480426
1176	C	0.995635	0.847652	0.455222
1177	H	0.001109	0.868246	0.001543
1178	H	0.019673	0.898786	0.472689
1179	C	0.99369	0.814628	0.46603
1180	H	0.477965	0.805608	0.486586
1181	H	0.481544	0.796159	0.447933
1182	C	0.016585	0.857995	0.425216
1183	H	0.015073	0.879308	0.417105
1184	H	0.504214	0.838729	0.4077
1185	C	0.132109	0.68826	0.429683
1186	C	0.106596	0.680335	0.456651
1187	C	0.166657	0.718853	0.441648
1188	C	0.180283	0.710826	0.472453
1189	H	0.185233	0.725993	0.423498
1190	H	0.163723	0.740512	0.445723
1191	C	0.152532	0.700677	0.497164
1192	C	0.117707	0.671481	0.487475
1193	H	0.152185	0.723477	0.502364
1194	H	0.158668	0.692212	0.018295
1195	H	0.10323	0.70187	0.460097
1196	H	0.08211	0.659428	0.450528
1197	C	0.122633	0.641021	0.480598
1198	C	0.149781	0.647877	0.455483
1199	H	0.129123	0.632922	0.001803
1200	H	0.098637	0.620686	0.472867
1201	C	0.182717	0.67908	0.466243
1202	H	0.191742	0.672532	0.486893
1203	H	0.201229	0.685363	0.44819
1204	C	0.139395	0.658257	0.425375
1205	H	0.118103	0.635337	0.417408
1206	H	0.158656	0.665071	0.407867
1207	C	0.054158	0.68827	0.317976
1208	C	0.071698	0.68036	0.290944
1209	C	0.050094	0.71879	0.305998
1210	C	0.028321	0.710634	0.275255
1211	H	0.038689	0.725948	0.324163
1212	H	0.074655	0.74047	0.301845
1213	C	0.045856	0.700468	0.250493
1214	C	0.051603	0.671362	0.260201
1215	H	0.068959	0.723268	0.245176
1216	H	0.03115	0.691903	0.229423
1217	H	0.096549	0.701945	0.287418
1218	H	0.075404	0.659522	0.297014
1219	C	0.016292	0.640856	0.267231
1220	C	0.996045	0.647717	0.292394
1221	H	0.001614	0.632663	0.246081
1222	H	0.020066	0.620589	0.274964
1223	C	0.994196	0.678851	0.281589
1224	H	0.478542	0.672214	0.260986
1225	H	0.482006	0.685159	0.299657
1226	C	0.016915	0.65824	0.32245
1227	H	0.015372	0.635392	0.330543
1228	H	0.504513	0.665121	0.339948
1229	C	0.131944	0.943313	0.318205
1230	C	0.10649	0.925768	0.291189
1231	C	0.166542	0.947378	0.30625
1232	C	0.180184	0.969132	0.275498
1233	H	0.185091	0.958789	0.324424
1234	H	0.163661	0.922814	0.302115
1235	C	0.152489	0.951564	0.250738
1236	C	0.117623	0.945824	0.260418
1237	H	0.152196	0.928458	0.245465
1238	H	0.15864	0.966243	0.229652
1239	H	0.103182	0.900896	0.287691
1240	H	0.081971	0.922117	0.297284
1241	C	0.122448	0.981153	0.267382
1242	C	0.149548	0.001418	0.29255
1243	H	0.128961	0.99581	0.246216
1244	H	0.09841	0.977413	0.275083
1245	C	0.182538	0.003269	0.281792
1246	H	0.191574	0.518926	0.261195
1247	H	0.201016	0.515449	0.299877
1248	C	0.139169	0.98057	0.322608
1249	H	0.117857	0.982152	0.330593
1250	H	0.15841	0.492987	0.340136
1251	C	0.309304	0.865142	0.318207
1252	C	0.317207	0.890647	0.291244
1253	C	0.278792	0.830557	0.306209
1254	C	0.286922	0.816982	0.275424
1255	H	0.271662	0.811978	0.324353
1256	H	0.257098	0.833424	0.30209
1257	C	0.297041	0.844718	0.25071
1258	C	0.326142	0.879577	0.260439
1259	H	0.274218	0.844995	0.245442
1260	H	0.305591	0.838617	0.229609
1261	H	0.295636	0.89395	0.287778
1262	H	0.338068	0.915156	0.297385
1263	C	0.356667	0.874768	0.267357
1264	C	0.349839	0.847629	0.292476
1265	H	0.36482	0.868303	0.24617
1266	H	0.376953	0.898799	0.275083
1267	C	0.318717	0.814643	0.281692
1268	H	0.325349	0.80565	0.261071
1269	H	0.312435	0.796139	0.299751
1270	C	0.339362	0.85795	0.32256
1271	H	0.362248	0.879268	0.330545
1272	H	0.332566	0.838691	0.340067
1273	C	0.162159	0.588753	0.137532
1274	C	0.16208	0.572174	0.110814
1275	C	0.191267	0.57515	0.097255
1276	C	0.221185	0.600431	0.111115
1277	C	0.221245	0.620203	0.136485
1278	C	0.191395	0.615214	0.150766
1279	H	0.243548	0.605325	0.102183
1280	H	0.139146	0.557558	0.101564
1281	H	0.139311	0.580373	0.147025
1282	H	0.243647	0.637957	0.145113
1283	C	0.408012	0.572306	0.137181
1284	C	0.424481	0.588818	0.110421
1285	C	0.421608	0.615175	0.097075
1286	C	0.396697	0.620128	0.111299
1287	C	0.377021	0.600419	0.136711
1288	C	0.381765	0.57526	0.150688
1289	H	0.39197	0.637798	0.10259
1290	H	0.438987	0.580455	0.100984
1291	H	0.41635	0.557732	0.146495
1292	H	0.359509	0.60528	0.14559
1293	C	0.424868	0.835224	0.137227
1294	C	0.408346	0.835239	0.110501
1295	C	0.381962	0.806044	0.097128
1296	C	0.377144	0.776148	0.111182
1297	C	0.396878	0.776131	0.136553
1298	C	0.421996	0.806004	0.150601
1299	H	0.359511	0.753771	0.102406
1300	H	0.416728	0.858134	0.101122
1301	H	0.439422	0.858114	0.146598
1302	H	0.392102	0.753741	0.145321
1303	C	0.334752	0.908364	0.360961
1304	C	0.334637	0.924814	0.387704
1305	C	0.305398	0.922119	0.400844
1306	C	0.275564	0.897396	0.38644
1307	C	0.27564	0.877717	0.36105
1308	C	0.305568	0.882252	0.347299
1309	H	0.253156	0.892861	0.394957
1310	H	0.357462	0.939221	0.39727
1311	H	0.357707	0.916655	0.35178
1312	H	0.253288	0.860378	0.352
1313	C	0.088557	0.925466	0.360807
1314	C	0.07208	0.908952	0.387555
1315	C	0.074794	0.882464	0.400809
1316	C	0.099645	0.877438	0.386552
1317	C	0.119373	0.897172	0.361169
1318	C	0.114719	0.922413	0.347242
1319	H	0.104249	0.859656	0.395188
1320	H	0.057665	0.917395	0.397048
1321	H	0.08026	0.94009	0.351537
1322	H	0.136811	0.892234	0.352242
1323	C	0.072357	0.662727	0.360225
1324	C	0.088838	0.662683	0.386976
1325	C	0.114951	0.691903	0.400585
1326	C	0.119536	0.721796	0.386712
1327	C	0.099849	0.721806	0.361302
1328	C	0.075063	0.691938	0.346994
1329	H	0.136916	0.744173	0.395687
1330	H	0.080583	0.639753	0.396207
1331	H	0.05794	0.639877	0.350717
1332	H	0.104442	0.744196	0.352684
1333	C	0.127537	0.58492	0.956629
1334	C	0.132472	0.562006	0.973752
1335	C	0.164463	0.570807	0.985347
1336	C	0.191453	0.600102	0.472881
1337	C	0.186462	0.621027	0.453346
1338	C	0.154395	0.617615	0.451426
1339	H	0.215397	0.60859	0.479645
1340	H	0.111669	0.540747	0.980548
1341	H	0.103521	0.579302	0.953039
1342	H	0.207349	0.642413	0.447003
1343	C	0.412477	0.542055	0.956365
1344	C	0.435301	0.569923	0.973507
1345	C	0.426284	0.592932	0.985132
1346	C	0.396996	0.590514	0.472524
1347	C	0.376451	0.564882	0.452528
1348	C	0.379791	0.536147	0.450904
1349	H	0.388347	0.605833	0.479311
1350	H	0.456559	0.570403	0.980349
1351	H	0.418134	0.523695	0.952668
1352	H	0.354997	0.564257	0.44627
1353	C	0.455025	0.870076	0.956239
1354	C	0.427287	0.865093	0.973571
1355	C	0.40422	0.833083	0.985196
1356	C	0.406512	0.806166	0.472533
1357	C	0.43209	0.811192	0.452496
1358	C	0.460875	0.843236	0.450913
1359	H	0.391152	0.782205	0.479315
1360	H	0.426877	0.885878	0.980507
1361	H	0.473507	0.894074	0.952758
1362	H	0.432648	0.790331	0.44622
1363	C	0.412858	0.869986	0.291329
1364	C	0.435682	0.864995	0.274121
1365	C	0.426757	0.832973	0.262537
1366	C	0.397528	0.806051	0.275175
1367	C	0.376861	0.811114	0.295033
1368	C	0.380165	0.843167	0.296643
1369	H	0.388876	0.782105	0.26831
1370	H	0.456897	0.885771	0.267208
1371	H	0.418468	0.894019	0.294788
1372	H	0.355431	0.79016	0.301133
1373	C	0.455336	0.584776	0.291177
1374	C	0.42746	0.561931	0.274039
1375	C	0.404231	0.570762	0.262608
1376	C	0.406554	0.59999	0.275264
1377	C	0.432497	0.620808	0.294836
1378	C	0.461197	0.617453	0.296583
1379	H	0.391074	0.6085	0.268649
1380	H	0.427012	0.540715	0.267121
1381	H	0.473742	0.579143	0.294641
1382	H	0.433001	0.642156	0.30133
1383	C	0.127274	0.542097	0.291253
1384	C	0.132313	0.570003	0.274181
1385	C	0.164355	0.593077	0.262638
1386	C	0.191228	0.590686	0.275276
1387	C	0.186138	0.564994	0.295191
1388	C	0.154077	0.536234	0.296751
1389	H	0.215205	0.606045	0.268536
1390	H	0.111535	0.570463	0.267309
1391	H	0.10326	0.523712	0.294907
1392	H	0.206975	0.564396	0.301472
1393	C	0.369628	0.913435	0.541542
1394	C	0.364547	0.936156	0.524263
1395	C	0.332484	0.92717	0.512746
1396	C	0.305626	0.897964	0.025483
1397	C	0.310742	0.877425	0.045458
1398	C	0.342818	0.880748	0.046911
1399	H	0.281638	0.88933	0.018776
1400	H	0.385295	0.957352	0.51727
1401	H	0.393644	0.918974	0.544939
1402	H	0.289921	0.856007	0.051794
1403	C	0.083926	0.955626	0.541363
1404	C	0.061048	0.927773	0.524227
1405	C	0.069912	0.904611	0.512693
1406	C	0.099137	0.906898	0.025317
1407	C	0.1199	0.932701	0.045067
1408	C	0.116605	0.961456	0.046632
1409	H	0.107738	0.891554	0.01848
1410	H	0.039839	0.927347	0.517313
1411	H	0.078355	0.97408	0.544788
1412	H	0.141329	0.933164	0.051147
1413	C	0.041423	0.628	0.541212
1414	C	0.069287	0.633044	0.524046
1415	C	0.092458	0.665091	0.512544
1416	C	0.090093	0.691993	0.025148
1417	C	0.064174	0.686868	0.044751
1418	C	0.035514	0.65479	0.046578
1419	H	0.105529	0.715976	0.018481
1420	H	0.069769	0.612281	0.517171
1421	H	0.023052	0.603957	0.544726
1422	H	0.063642	0.707708	0.051208
1423	C	0.08432	0.627976	0.206346
1424	C	0.061448	0.632981	0.223447
1425	C	0.070416	0.664996	0.235076
1426	C	0.099703	0.691901	0.222506
1427	C	0.12032	0.686868	0.202557
1428	C	0.116991	0.654803	0.200937
1429	H	0.108314	0.715857	0.229311
1430	H	0.040192	0.612188	0.230268
1431	H	0.078694	0.603972	0.202629
1432	H	0.141782	0.707715	0.196346
1433	C	0.041745	0.913228	0.206196
1434	C	0.06946	0.935974	0.223558
1435	C	0.092471	0.927001	0.235276
1436	C	0.090154	0.897753	0.222688
1437	C	0.064615	0.877206	0.202617
1438	C	0.035865	0.880521	0.200926
1439	H	0.105468	0.889123	0.229544
1440	H	0.069893	0.957195	0.230438
1441	H	0.023294	0.918772	0.202644
1442	H	0.064041	0.855768	0.196394
1443	C	0.369353	0.955638	0.206448
1444	C	0.364414	0.927837	0.223653
1445	C	0.332436	0.904763	0.235344
1446	C	0.305467	0.907079	0.222841
1447	C	0.310448	0.932788	0.202994
1448	C	0.342514	0.961503	0.201269
1449	H	0.281552	0.891798	0.229796
1450	H	0.385211	0.927387	0.230474
1451	H	0.393372	0.974055	0.202914
1452	H	0.289471	0.933269	0.196992
1453	C	0.256146	0.979709	0.01756
1454	C	0.24451	0.499846	0.030501
1455	C	0.234884	0.518878	0.012294
1456	C	0.240303	0.517695	0.480207
1457	C	0.25198	0.99759	0.467289
1458	C	0.261636	0.978571	0.485471
1459	H	0.235593	0.531398	0.464923
1460	H	0.240633	0.498367	0.053652
1461	H	0.260812	0.965966	0.032838
1462	H	0.255771	0.99899	0.444124
1463	C	0.016922	0.775695	0.01759
1464	C	0.49677	0.743927	0.030527
1465	C	0.477803	0.715264	0.012328
1466	C	0.478935	0.721851	0.480232
1467	C	0.99909	0.753619	0.467292
1468	C	0.018074	0.782282	0.485491
1469	H	0.465195	0.703439	0.464957
1470	H	0.498245	0.741536	0.05368
1471	H	0.030666	0.794099	0.032869
1472	H	0.997626	0.756023	0.44414
1473	C	0.22145	0.741297	0.017641
1474	C	0.253225	0.752887	0.030557
1475	C	0.281893	0.76255	0.012361
1476	C	0.275261	0.757158	0.480264
1477	C	0.243489	0.745563	0.467335
1478	C	0.21483	0.735897	0.485555
1479	H	0.29366	0.761833	0.464974
1480	H	0.25563	0.756718	0.053714
1481	H	0.203039	0.73659	0.032929
1482	H	0.241083	0.741705	0.444183
1483	C	0.017522	0.741033	0.230069
1484	C	0.49735	0.752621	0.217123
1485	C	0.47841	0.762319	0.235356
1486	C	0.479521	0.75685	0.267444
1487	C	0.999696	0.745247	0.280356
1488	C	0.018749	0.735631	0.262161
1489	H	0.465794	0.761529	0.282725
1490	H	0.498806	0.756488	0.193972
1491	H	0.031246	0.736348	0.214786
1492	H	0.998248	0.741411	0.303513
1493	C	0.221418	0.979925	0.230369
1494	C	0.25319	0.50009	0.217431
1495	C	0.281854	0.519097	0.235642
1496	C	0.275245	0.51789	0.267728
1497	C	0.243457	0.997772	0.280643
1498	C	0.214786	0.978728	0.262461
1499	H	0.29366	0.531587	0.283013
1500	H	0.255587	0.498633	0.194278
1501	H	0.203018	0.966191	0.215084
1502	H	0.241062	0.999169	0.303806
1503	C	0.256485	0.775834	0.230266
1504	C	0.244823	0.744071	0.217297
1505	C	0.235126	0.715388	0.235463
1506	C	0.24062	0.721943	0.267563
1507	C	0.25226	0.753699	0.280537
1508	C	0.261939	0.782382	0.26237
1509	H	0.235962	0.703516	0.282816
1510	H	0.240961	0.74171	0.194143
1511	H	0.261163	0.794264	0.215012
1512	H	0.256165	0.75608	0.303685
1513	C	0.18755	0.554273	0.568194
1514	C	0.17968	0.571883	0.541214
1515	C	0.218048	0.550171	0.556202
1516	C	0.209897	0.528449	0.525425
1517	H	0.225164	0.538717	0.574356
1518	H	0.239755	0.574724	0.552083
1519	C	0.1998	0.546074	0.500701
1520	C	0.170725	0.551869	0.510418
1521	H	0.22264	0.569156	0.495433
1522	H	0.191237	0.53142	0.979602
1523	H	0.201272	0.596743	0.537744
1524	H	0.158838	0.575569	0.547335
1525	C	0.140177	0.516552	0.51735
1526	C	0.146979	0.496227	0.542476
1527	H	0.132006	0.501933	0.996164
1528	H	0.119913	0.520328	0.525081
1529	C	0.178086	0.494327	0.531692
1530	H	0.171446	0.978698	0.511076
1531	H	0.18436	0.982105	0.549754
1532	C	0.157476	0.517033	0.57256
1533	H	0.134607	0.515489	0.580568
1534	H	0.164272	0.004566	0.590063
1535	C	0.442499	0.632433	0.568052
1536	C	0.42499	0.606976	0.541022
1537	C	0.446486	0.666996	0.556092
1538	C	0.468233	0.680659	0.525342
1539	H	0.45787	0.685553	0.574264
1540	H	0.421901	0.664062	0.551957
1541	C	0.450724	0.652952	0.500575
1542	C	0.44506	0.618121	0.510263
1543	H	0.427589	0.652599	0.495291
1544	H	0.465415	0.659131	0.979494
1545	H	0.400111	0.603644	0.537508
1546	H	0.421355	0.58246	0.547094
1547	C	0.480412	0.623012	0.517258
1548	C	0.500629	0.650126	0.542426
1549	H	0.495078	0.629535	0.9961
1550	H	0.476708	0.598994	0.524978
1551	C	0.50239	0.683072	0.531653
1552	H	0.018031	0.692125	0.511044
1553	H	0.014563	0.701564	0.549731
1554	C	0.479771	0.639716	0.572489
1555	H	0.481367	0.618427	0.580531
1556	H	0.992155	0.658982	0.590006
1557	C	0.364739	0.809762	0.568116
1558	C	0.390173	0.817682	0.541072
1559	C	0.330124	0.779284	0.556129
1560	C	0.316503	0.7875	0.525415
1561	H	0.311577	0.772124	0.574308
1562	H	0.332972	0.757592	0.551935
1563	C	0.344188	0.797656	0.500639
1564	C	0.37907	0.826722	0.510352
1565	H	0.344449	0.774841	0.495298
1566	H	0.33805	0.806253	0.979588
1567	H	0.393419	0.796089	0.53751
1568	H	0.414722	0.838499	0.547163
1569	C	0.374303	0.857243	0.51743
1570	C	0.347214	0.850384	0.542614
1571	H	0.367823	0.865476	0.996301
1572	H	0.398357	0.877483	0.525166
1573	C	0.314201	0.819298	0.531802
1574	H	0.305188	0.825997	0.511236
1575	H	0.295721	0.812967	0.549887
1576	C	0.357551	0.839802	0.572631
1577	H	0.378861	0.862647	0.58071
1578	H	0.338286	0.832926	0.590148
1579	C	0.442918	0.809682	0.679615
1580	C	0.425422	0.817627	0.706656
1581	C	0.44698	0.779154	0.691584
1582	C	0.468792	0.78731	0.722304
1583	H	0.458352	0.771982	0.6734
1584	H	0.422418	0.757485	0.695762
1585	C	0.451293	0.797496	0.747082
1586	C	0.445541	0.826605	0.737388
1587	H	0.428196	0.774696	0.752408
1588	H	0.466022	0.806059	0.76814
1589	H	0.40056	0.796059	0.7102
1590	H	0.421744	0.83848	0.700574
1591	C	0.48086	0.857098	0.730351
1592	C	0.50107	0.850212	0.705167
1593	H	0.495555	0.865284	0.751492
1594	H	0.477105	0.877378	0.722627
1595	C	0.502923	0.819079	0.715945
1596	H	0.018607	0.825721	0.736527
1597	H	0.01508	0.812758	0.697853
1598	C	0.480169	0.839692	0.675134
1599	H	0.481743	0.862562	0.66708
1600	H	0.992547	0.832811	0.657613
1601	C	0.364588	0.5544	0.679752
1602	C	0.39008	0.571958	0.706746
1603	C	0.330017	0.550365	0.691746
1604	C	0.316409	0.528633	0.722515
1605	H	0.311444	0.538949	0.67359
1606	H	0.332915	0.574936	0.695876
1607	C	0.344146	0.546204	0.74724
1608	C	0.378992	0.551917	0.737525
1609	H	0.344456	0.56932	0.7525
1610	H	0.338022	0.53155	0.76834
1611	H	0.393392	0.59683	0.710248
1612	H	0.414591	0.575606	0.700623
1613	C	0.374131	0.51657	0.730557
1614	C	0.346992	0.496307	0.705424
1615	H	0.367664	0.501933	0.751732
1616	H	0.398141	0.520288	0.722801
1617	C	0.314028	0.494487	0.71622
1618	H	0.305016	0.978857	0.736836
1619	H	0.295527	0.982291	0.698153
1620	C	0.357349	0.51714	0.675352
1621	H	0.378652	0.515566	0.667321
1622	H	0.33808	0.004716	0.657846
1623	C	0.187755	0.632541	0.679734
1624	C	0.179783	0.60711	0.706794
1625	C	0.218291	0.667118	0.69171
1626	C	0.210123	0.680786	0.722418
1627	H	0.225493	0.68567	0.673528
1628	H	0.239945	0.664204	0.695906
1629	C	0.199892	0.653099	0.747206
1630	C	0.170775	0.618255	0.7375
1631	H	0.222672	0.652771	0.752555
1632	H	0.191323	0.659283	0.76825
1633	H	0.201345	0.603816	0.710365
1634	H	0.158932	0.582572	0.700733
1635	C	0.140306	0.623102	0.730413
1636	C	0.147233	0.6502	0.705213
1637	H	0.132103	0.629619	0.751537
1638	H	0.120024	0.599069	0.72268
1639	C	0.178373	0.683172	0.716016
1640	H	0.17172	0.692222	0.736586
1641	H	0.184728	0.701651	0.697924
1642	C	0.157774	0.639813	0.675194
1643	H	0.134916	0.618534	0.667087
1644	H	0.164707	0.659089	0.657679
1645	C	0.309029	0.943096	0.929796
1646	C	0.317008	0.925673	0.956888
1647	C	0.278487	0.947138	0.941749
1648	C	0.286661	0.96901	0.972432
1649	H	0.271276	0.958463	0.923551
1650	H	0.256841	0.922573	0.945966
1651	C	0.296907	0.951596	0.997247
1652	C	0.326033	0.945871	0.987567
1653	H	0.274133	0.92849	0.002607
1654	H	0.305469	0.966375	0.518278
1655	H	0.295448	0.900823	0.960489
1656	H	0.337854	0.92197	0.950847
1657	C	0.35649	0.981181	0.980429
1658	C	0.349545	0.001316	0.955209
1659	H	0.364705	0.995929	0.50154
1660	H	0.37677	0.97743	0.972693
1661	C	0.318402	0.003148	0.966005
1662	H	0.325053	0.518871	0.986561
1663	H	0.312038	0.515252	0.947899
1664	C	0.338998	0.980349	0.92521
1665	H	0.361849	0.981918	0.917087
1666	H	0.332044	0.492664	0.907684
1667	C	0.053802	0.86517	0.929775
1668	C	0.07129	0.890575	0.956844
1669	C	0.049651	0.830547	0.941758
1670	C	0.027777	0.816912	0.972451
1671	H	0.038281	0.812008	0.92357
1672	H	0.074188	0.833392	0.945973
1673	C	0.04527	0.844579	0.997249
1674	C	0.051112	0.879465	0.987542
1675	H	0.068333	0.844828	0.002628
1676	H	0.030499	0.838432	0.51828
1677	H	0.096119	0.8938	0.960427
1678	H	0.075052	0.915141	0.950778
1679	C	0.015842	0.874728	0.980427
1680	C	0.995635	0.847652	0.955222
1681	H	0.001109	0.868246	0.501542
1682	H	0.019673	0.898786	0.972689
1683	C	0.99369	0.814628	0.96603
1684	H	0.477965	0.805608	0.986586
1685	H	0.481544	0.796159	0.947931
1686	C	0.016585	0.857995	0.925217
1687	H	0.015073	0.879308	0.917103
1688	H	0.504214	0.838729	0.907698
1689	C	0.132109	0.68826	0.929684
1690	C	0.106596	0.680335	0.956649
1691	C	0.166657	0.718853	0.941646
1692	C	0.180283	0.710826	0.972453
1693	H	0.185233	0.725993	0.923499
1694	H	0.163723	0.740512	0.945723
1695	C	0.152532	0.700677	0.997162
1696	C	0.117707	0.671481	0.987473
1697	H	0.152185	0.723477	0.002364
1698	H	0.158668	0.692212	0.518294
1699	H	0.10323	0.70187	0.960097
1700	H	0.08211	0.659428	0.950527
1701	C	0.122633	0.641021	0.980599
1702	C	0.149781	0.647877	0.955484
1703	H	0.129123	0.632922	0.501803
1704	H	0.098637	0.620686	0.972865
1705	C	0.182717	0.67908	0.966243
1706	H	0.191742	0.672532	0.986893
1707	H	0.201229	0.685363	0.94819
1708	C	0.139395	0.658257	0.925375
1709	H	0.118103	0.635337	0.917408
1710	H	0.158656	0.665071	0.907865
1711	C	0.054158	0.68827	0.817976
1712	C	0.071698	0.68036	0.790944
1713	C	0.050094	0.71879	0.805996
1714	C	0.028321	0.710634	0.775253
1715	H	0.038689	0.725948	0.824163
1716	H	0.074655	0.74047	0.801843
1717	C	0.045856	0.700468	0.750491
1718	C	0.051603	0.671362	0.760201
1719	H	0.068959	0.723268	0.745176
1720	H	0.03115	0.691903	0.729421
1721	H	0.096549	0.701945	0.787419
1722	H	0.075404	0.659522	0.797014
1723	C	0.016292	0.640856	0.767231
1724	C	0.996045	0.647717	0.792394
1725	H	0.001614	0.632663	0.746081
1726	H	0.020066	0.620589	0.774964
1727	C	0.994196	0.678851	0.781589
1728	H	0.478542	0.672214	0.760987
1729	H	0.482006	0.685159	0.799656
1730	C	0.016915	0.65824	0.82245
1731	H	0.015372	0.635392	0.830543
1732	H	0.504513	0.665121	0.839949
1733	C	0.131944	0.943313	0.818205
1734	C	0.10649	0.925768	0.791189
1735	C	0.166542	0.947378	0.80625
1736	C	0.180184	0.969132	0.775496
1737	H	0.185091	0.958789	0.824425
1738	H	0.163661	0.922814	0.802116
1739	C	0.152489	0.951564	0.750738
1740	C	0.117623	0.945824	0.760418
1741	H	0.152196	0.928458	0.745465
1742	H	0.15864	0.966243	0.729652
1743	H	0.103182	0.900896	0.787691
1744	H	0.081971	0.922117	0.797285
1745	C	0.122448	0.981153	0.767382
1746	C	0.149548	0.001418	0.792548
1747	H	0.128961	0.99581	0.746216
1748	H	0.09841	0.977413	0.775083
1749	C	0.182538	0.003269	0.781793
1750	H	0.191574	0.518926	0.761195
1751	H	0.201016	0.515449	0.799878
1752	C	0.139169	0.98057	0.822606
1753	H	0.117857	0.982152	0.830593
1754	H	0.15841	0.492987	0.840136
1755	C	0.309304	0.865142	0.818208
1756	C	0.317207	0.890647	0.791244
1757	C	0.278792	0.830557	0.806207
1758	C	0.286922	0.816982	0.775422
1759	H	0.271662	0.811978	0.824354
1760	H	0.257098	0.833424	0.80209
1761	C	0.297041	0.844718	0.750708
1762	C	0.326142	0.879577	0.760439
1763	H	0.274218	0.844995	0.745442
1764	H	0.305591	0.838617	0.729609
1765	H	0.295636	0.89395	0.787778
1766	H	0.338068	0.915156	0.797385
1767	C	0.356667	0.874768	0.767357
1768	C	0.349839	0.847629	0.792477
1769	H	0.36482	0.868303	0.74617
1770	H	0.376953	0.898799	0.775083
1771	C	0.318717	0.814643	0.78169
1772	H	0.325349	0.80565	0.761069
1773	H	0.312435	0.796139	0.799749
1774	C	0.339362	0.85795	0.82256
1775	H	0.362248	0.879268	0.830543
1776	H	0.332566	0.838691	0.840068
1777	C	0.162159	0.588753	0.637533
1778	C	0.16208	0.572174	0.610814
1779	C	0.191267	0.57515	0.597256
1780	C	0.221185	0.600431	0.611114
1781	C	0.221245	0.620203	0.636486
1782	C	0.191395	0.615214	0.650766
1783	H	0.243548	0.605325	0.602183
1784	H	0.139146	0.557558	0.601564
1785	H	0.139311	0.580373	0.647025
1786	H	0.243647	0.637957	0.645113
1787	C	0.408012	0.572306	0.63718
1788	C	0.424481	0.588818	0.61042
1789	C	0.421608	0.615175	0.597075
1790	C	0.396697	0.620128	0.6113
1791	C	0.377021	0.600419	0.63671
1792	C	0.381765	0.57526	0.650688
1793	H	0.39197	0.637798	0.602591
1794	H	0.438987	0.580455	0.600983
1795	H	0.41635	0.557732	0.646494
1796	H	0.359509	0.60528	0.645589
1797	C	0.424868	0.835224	0.637226
1798	C	0.408346	0.835239	0.6105
1799	C	0.381962	0.806044	0.597127
1800	C	0.377144	0.776148	0.611181
1801	C	0.396878	0.776131	0.636552
1802	C	0.421996	0.806004	0.650601
1803	H	0.359511	0.753771	0.602405
1804	H	0.416728	0.858134	0.601122
1805	H	0.439422	0.858114	0.646597
1806	H	0.392102	0.753741	0.645321
1807	C	0.334752	0.908364	0.860959
1808	C	0.334637	0.924814	0.887702
1809	C	0.305398	0.922119	0.900844
1810	C	0.275564	0.897396	0.88644
1811	C	0.27564	0.877717	0.861048
1812	C	0.305568	0.882252	0.847299
1813	H	0.253156	0.892861	0.894957
1814	H	0.357462	0.939221	0.897268
1815	H	0.357707	0.916655	0.851778
1816	H	0.253288	0.860378	0.851998
1817	C	0.088557	0.925466	0.860807
1818	C	0.07208	0.908952	0.887556
1819	C	0.074794	0.882464	0.900807
1820	C	0.099645	0.877438	0.886552
1821	C	0.119373	0.897172	0.861169
1822	C	0.114719	0.922413	0.847242
1823	H	0.104249	0.859656	0.895188
1824	H	0.057665	0.917395	0.897048
1825	H	0.08026	0.94009	0.851537
1826	H	0.136811	0.892234	0.85224
1827	C	0.072357	0.662727	0.860226
1828	C	0.088838	0.662683	0.886976
1829	C	0.114951	0.691903	0.900585
1830	C	0.119536	0.721796	0.886713
1831	C	0.099849	0.721806	0.861302
1832	C	0.075063	0.691938	0.846995
1833	H	0.136916	0.744173	0.895685
1834	H	0.080583	0.639753	0.896208
1835	H	0.05794	0.639877	0.850717
1836	H	0.104442	0.744196	0.852685
1837	C	0.127537	0.58492	0.456629
1838	C	0.132472	0.562006	0.473751
1839	C	0.164463	0.570807	0.485347
1840	C	0.191453	0.600102	0.972881
1841	C	0.186462	0.621027	0.953346
1842	C	0.154395	0.617615	0.951424
1843	H	0.215397	0.60859	0.979646
1844	H	0.111669	0.540747	0.48055
1845	H	0.103521	0.579302	0.453039
1846	H	0.207349	0.642413	0.947003
1847	C	0.412477	0.542055	0.456367
1848	C	0.435301	0.569923	0.473506
1849	C	0.426284	0.592932	0.485134
1850	C	0.396996	0.590514	0.972524
1851	C	0.376451	0.564882	0.952529
1852	C	0.379791	0.536147	0.950904
1853	H	0.388347	0.605833	0.979311
1854	H	0.456559	0.570403	0.480349
1855	H	0.418134	0.523695	0.45267
1856	H	0.354997	0.564257	0.94627
1857	C	0.455025	0.870076	0.456239
1858	C	0.427287	0.865093	0.47357
1859	C	0.40422	0.833083	0.485198
1860	C	0.406512	0.806166	0.972533
1861	C	0.43209	0.811192	0.952496
1862	C	0.460875	0.843236	0.950914
1863	H	0.391152	0.782205	0.979316
1864	H	0.426877	0.885878	0.480507
1865	H	0.473507	0.894074	0.452757
1866	H	0.432648	0.790331	0.94622
1867	C	0.412858	0.869986	0.791329
1868	C	0.435682	0.864995	0.774119
1869	C	0.426757	0.832973	0.762537
1870	C	0.397528	0.806051	0.775175
1871	C	0.376861	0.811114	0.795033
1872	C	0.380165	0.843167	0.796643
1873	H	0.388876	0.782105	0.76831
1874	H	0.456897	0.885771	0.767208
1875	H	0.418468	0.894019	0.794788
1876	H	0.355431	0.79016	0.801131
1877	C	0.455336	0.584776	0.791178
1878	C	0.42746	0.561931	0.774039
1879	C	0.404231	0.570762	0.762608
1880	C	0.406554	0.59999	0.775264
1881	C	0.432497	0.620808	0.794836
1882	C	0.461197	0.617453	0.796584
1883	H	0.391074	0.6085	0.768649
1884	H	0.427012	0.540715	0.767121
1885	H	0.473742	0.579143	0.794641
1886	H	0.433001	0.642156	0.80133
1887	C	0.127274	0.542097	0.791253
1888	C	0.132313	0.570003	0.774181
1889	C	0.164355	0.593077	0.762638
1890	C	0.191228	0.590686	0.775274
1891	C	0.186138	0.564994	0.795191
1892	C	0.154077	0.536234	0.796751
1893	H	0.215205	0.606045	0.768534
1894	H	0.111535	0.570463	0.767307
1895	H	0.10326	0.523712	0.794907
1896	H	0.206975	0.564396	0.801472
1897	C	0.369628	0.913435	0.041542
1898	C	0.364547	0.936156	0.024264
1899	C	0.332484	0.92717	0.012746
1900	C	0.305626	0.897964	0.525482
1901	C	0.310742	0.877425	0.545457
1902	C	0.342818	0.880748	0.546911
1903	H	0.281638	0.88933	0.518777
1904	H	0.385295	0.957352	0.01727
1905	H	0.393644	0.918974	0.044939
1906	H	0.289921	0.856007	0.551793
1907	C	0.083926	0.955626	0.041363
1908	C	0.061048	0.927773	0.024227
1909	C	0.069912	0.904611	0.012693
1910	C	0.099137	0.906898	0.525317
1911	C	0.1199	0.932701	0.545067
1912	C	0.116605	0.961456	0.546632
1913	H	0.107738	0.891554	0.518479
1914	H	0.039839	0.927347	0.017314
1915	H	0.078355	0.97408	0.044788
1916	H	0.141329	0.933164	0.551147
1917	C	0.041423	0.628	0.041211
1918	C	0.069287	0.633044	0.024047
1919	C	0.092458	0.665091	0.012545
1920	C	0.090093	0.691993	0.525147
1921	C	0.064174	0.686868	0.544751
1922	C	0.035514	0.65479	0.546577
1923	H	0.105529	0.715976	0.518481
1924	H	0.069769	0.612281	0.017171
1925	H	0.023052	0.603957	0.044726
1926	H	0.063642	0.707708	0.551208
1927	C	0.08432	0.627976	0.706345
1928	C	0.061448	0.632981	0.723447
1929	C	0.070416	0.664996	0.735077
1930	C	0.099703	0.691901	0.722505
1931	C	0.12032	0.686868	0.702558
1932	C	0.116991	0.654803	0.700936
1933	H	0.108314	0.715857	0.729311
1934	H	0.040192	0.612188	0.730269
1935	H	0.078694	0.603972	0.702629
1936	H	0.141782	0.707715	0.696346
1937	C	0.041745	0.913228	0.706196
1938	C	0.06946	0.935974	0.723557
1939	C	0.092471	0.927001	0.735276
1940	C	0.090154	0.897753	0.722689
1941	C	0.064615	0.877206	0.702615
1942	C	0.035865	0.880521	0.700925
1943	H	0.105468	0.889123	0.729545
1944	H	0.069893	0.957195	0.730438
1945	H	0.023294	0.918772	0.702645
1946	H	0.064041	0.855768	0.696394
1947	C	0.369353	0.955638	0.706448
1948	C	0.364414	0.927837	0.723653
1949	C	0.332436	0.904763	0.735345
1950	C	0.305467	0.907079	0.722842
1951	C	0.310448	0.932788	0.702993
1952	C	0.342514	0.961503	0.701269
1953	H	0.281552	0.891798	0.729797
1954	H	0.385211	0.927387	0.730475
1955	H	0.393372	0.974055	0.702913
1956	H	0.289471	0.933269	0.696992
1957	C	0.256146	0.979709	0.517558
1958	C	0.24451	0.499846	0.530501
1959	C	0.234884	0.518878	0.512294
1960	C	0.240303	0.517695	0.980207
1961	C	0.25198	0.99759	0.967287
1962	C	0.261636	0.978571	0.985469
1963	H	0.235593	0.531398	0.964921
1964	H	0.240633	0.498367	0.553653
1965	H	0.260812	0.965966	0.532837
1966	H	0.255771	0.99899	0.944124
1967	C	0.016922	0.775695	0.51759
1968	C	0.49677	0.743927	0.530526
1969	C	0.477803	0.715264	0.512329
1970	C	0.478935	0.721851	0.980232
1971	C	0.99909	0.753619	0.967292
1972	C	0.018074	0.782282	0.985491
1973	H	0.465195	0.703439	0.964955
1974	H	0.498245	0.741536	0.55368
1975	H	0.030666	0.794099	0.532869
1976	H	0.997626	0.756023	0.94414
1977	C	0.22145	0.741297	0.517641
1978	C	0.253225	0.752887	0.530558
1979	C	0.281893	0.76255	0.512361
1980	C	0.275261	0.757158	0.980264
1981	C	0.243489	0.745563	0.967336
1982	C	0.21483	0.735897	0.985556
1983	H	0.29366	0.761833	0.964974
1984	H	0.25563	0.756718	0.553714
1985	H	0.203039	0.73659	0.532929
1986	H	0.241083	0.741705	0.944181
1987	C	0.017522	0.741033	0.730069
1988	C	0.49735	0.752621	0.717122
1989	C	0.47841	0.762319	0.735354
1990	C	0.479521	0.75685	0.767442
1991	C	0.999696	0.745247	0.780357
1992	C	0.018749	0.735631	0.762162
1993	H	0.465794	0.761529	0.782725
1994	H	0.498806	0.756488	0.69397
1995	H	0.031246	0.736348	0.714786
1996	H	0.998248	0.741411	0.803513
1997	C	0.221418	0.979925	0.730369
1998	C	0.25319	0.50009	0.717432
1999	C	0.281854	0.519097	0.735642
2000	C	0.275245	0.51789	0.767728
2001	C	0.243457	0.997772	0.780641
2002	C	0.214786	0.978728	0.762462
2003	H	0.29366	0.531587	0.783014
2004	H	0.255587	0.498633	0.694277
2005	H	0.203018	0.966191	0.715084
2006	H	0.241062	0.999169	0.803804
2007	C	0.256485	0.775834	0.730266
2008	C	0.244823	0.744071	0.717296
2009	C	0.235126	0.715388	0.735464
2010	C	0.24062	0.721943	0.767561
2011	C	0.25226	0.753699	0.780537
2012	C	0.261939	0.782382	0.762368
2013	H	0.235962	0.703516	0.782814
2014	H	0.240961	0.74171	0.694142
2015	H	0.261163	0.794264	0.71501
2016	H	0.256165	0.75608	0.803685
2017	C	0.68755	0.054273	0.068194
2018	C	0.679679	0.071884	0.041215
2019	C	0.718048	0.050172	0.056203
2020	C	0.709897	0.028449	0.025425
2021	H	0.725165	0.038718	0.074355
2022	H	0.739755	0.074723	0.052083
2023	C	0.699799	0.046074	0.000701
2024	C	0.670724	0.05187	0.01042
2025	H	0.722639	0.069156	0.995433
2026	H	0.691237	0.031421	0.479602
2027	H	0.701273	0.096743	0.037745
2028	H	0.658839	0.07557	0.047334
2029	C	0.640177	0.016553	0.017349
2030	C	0.646977	0.996226	0.042476
2031	H	0.632006	0.001933	0.496166
2032	H	0.619912	0.020328	0.025081
2033	C	0.678085	0.994328	0.031693
2034	H	0.671446	0.4787	0.011076
2035	H	0.684359	0.482104	0.049754
2036	C	0.657476	0.017034	0.072561
2037	H	0.634606	0.015488	0.080568
2038	H	0.664271	0.504566	0.090064
2039	C	0.942501	0.132435	0.068052
2040	C	0.92499	0.106977	0.041021
2041	C	0.946487	0.166995	0.056093
2042	C	0.968232	0.180658	0.025342
2043	H	0.957871	0.185554	0.074264
2044	H	0.921901	0.164063	0.051957
2045	C	0.950724	0.152954	0.000576
2046	C	0.945061	0.118121	0.010263
2047	H	0.92759	0.152599	0.995291
2048	H	0.965415	0.159132	0.479496
2049	H	0.90011	0.103643	0.037508
2050	H	0.921354	0.082459	0.047096
2051	C	0.980412	0.123011	0.017259
2052	C	0.00063	0.150125	0.042426
2053	H	0.995079	0.129536	0.496099
2054	H	0.976707	0.098993	0.024977
2055	C	0.002392	0.183073	0.031654
2056	H	0.51803	0.192124	0.011045
2057	H	0.514565	0.201564	0.049732
2058	C	0.979771	0.139717	0.072489
2059	H	0.981365	0.118427	0.080532
2060	H	0.492156	0.158982	0.090005
2061	C	0.864738	0.309761	0.068117
2062	C	0.890171	0.317681	0.041073
2063	C	0.830123	0.279283	0.056129
2064	C	0.816502	0.287499	0.025415
2065	H	0.811577	0.272123	0.074308
2066	H	0.832972	0.257591	0.051934
2067	C	0.844189	0.297658	0.00064
2068	C	0.87907	0.326722	0.010352
2069	H	0.844448	0.27484	0.995298
2070	H	0.838049	0.306252	0.479588
2071	H	0.89342	0.296091	0.03751
2072	H	0.914722	0.338501	0.047164
2073	C	0.874303	0.357245	0.01743
2074	C	0.847216	0.350386	0.042614
2075	H	0.867822	0.365476	0.496301
2076	H	0.898357	0.377482	0.025165
2077	C	0.814202	0.319297	0.031801
2078	H	0.805186	0.325997	0.011236
2079	H	0.795721	0.312967	0.049887
2080	C	0.857551	0.339804	0.072632
2081	H	0.878861	0.362646	0.08071
2082	H	0.838286	0.332928	0.090148
2083	C	0.942919	0.309684	0.179616
2084	C	0.925421	0.317626	0.206657
2085	C	0.946979	0.279156	0.191584
2086	C	0.968792	0.28731	0.222305
2087	H	0.958352	0.271981	0.173401
2088	H	0.922419	0.257487	0.195761
2089	C	0.951292	0.297496	0.247082
2090	C	0.945541	0.326607	0.237388
2091	H	0.928196	0.274696	0.252408
2092	H	0.966021	0.306058	0.26814
2093	H	0.900561	0.296061	0.2102
2094	H	0.921744	0.338479	0.200574
2095	C	0.98086	0.357098	0.230351
2096	C	0.00107	0.350212	0.205167
2097	H	0.995555	0.365286	0.251491
2098	H	0.977105	0.37738	0.222628
2099	C	0.002923	0.319078	0.215946
2100	H	0.518605	0.32572	0.236529
2101	H	0.515079	0.312757	0.197854
2102	C	0.980171	0.339694	0.175135
2103	H	0.981742	0.362562	0.167081
2104	H	0.49255	0.332813	0.157612
2105	C	0.864588	0.0544	0.179753
2106	C	0.890079	0.071957	0.206745
2107	C	0.830015	0.050365	0.191746
2108	C	0.816408	0.028632	0.222514
2109	H	0.811444	0.038949	0.173591
2110	H	0.832914	0.074936	0.195877
2111	C	0.844145	0.046204	0.24724
2112	C	0.878992	0.051917	0.237525
2113	H	0.844456	0.06932	0.252502
2114	H	0.838022	0.031549	0.268339
2115	H	0.893392	0.09683	0.210248
2116	H	0.914591	0.075606	0.200623
2117	C	0.874132	0.016571	0.230557
2118	C	0.846992	0.996308	0.205425
2119	H	0.867663	0.001934	0.251732
2120	H	0.898141	0.020287	0.2228
2121	C	0.814027	0.994487	0.216219
2122	H	0.805015	0.478856	0.236836
2123	H	0.795525	0.482291	0.198153
2124	C	0.857348	0.017141	0.175352
2125	H	0.878653	0.015565	0.167322
2126	H	0.838078	0.504715	0.157846
2127	C	0.687755	0.13254	0.179734
2128	C	0.679783	0.107111	0.206795
2129	C	0.718292	0.167119	0.191711
2130	C	0.710123	0.180787	0.222418
2131	H	0.725493	0.185671	0.17353
2132	H	0.739945	0.164205	0.195907
2133	C	0.699892	0.153101	0.247206
2134	C	0.670776	0.118255	0.237502
2135	H	0.722672	0.152772	0.252554
2136	H	0.691324	0.159283	0.26825
2137	H	0.701345	0.103815	0.210365
2138	H	0.658932	0.082571	0.200732
2139	C	0.640305	0.123101	0.230413
2140	C	0.647233	0.1502	0.205214
2141	H	0.632103	0.12962	0.251537
2142	H	0.620025	0.09907	0.222681
2143	C	0.678372	0.183171	0.216017
2144	H	0.671719	0.192223	0.236586
2145	H	0.684729	0.201652	0.197924
2146	C	0.657773	0.139812	0.175193
2147	H	0.634915	0.118533	0.167087
2148	H	0.664706	0.159088	0.15768
2149	C	0.80903	0.443098	0.429796
2150	C	0.817008	0.425673	0.456887
2151	C	0.778486	0.447138	0.441751
2152	C	0.786662	0.469012	0.472432
2153	H	0.771276	0.458462	0.423551
2154	H	0.75684	0.422572	0.445965
2155	C	0.796907	0.451598	0.497247
2156	C	0.826033	0.44587	0.487566
2157	H	0.774133	0.428489	0.502607
2158	H	0.805469	0.466374	0.018279
2159	H	0.795447	0.400823	0.460488
2160	H	0.837853	0.421969	0.450847
2161	C	0.856489	0.48118	0.480429
2162	C	0.849546	0.501316	0.455211
2163	H	0.864704	0.495929	0.001539
2164	H	0.87677	0.477429	0.472693
2165	C	0.818401	0.503148	0.466004
2166	H	0.825052	0.018871	0.486561
2167	H	0.812038	0.015251	0.447899
2168	C	0.838997	0.480348	0.42521
2169	H	0.861848	0.481917	0.417089
2170	H	0.832043	0.992662	0.407686
2171	C	0.553803	0.365169	0.429775
2172	C	0.571291	0.390575	0.456844
2173	C	0.549652	0.330547	0.441757
2174	C	0.527778	0.316912	0.472453
2175	H	0.53828	0.312008	0.423569
2176	H	0.574187	0.333391	0.445972
2177	C	0.545269	0.344578	0.497249
2178	C	0.551112	0.379467	0.487541
2179	H	0.568333	0.344827	0.502628
2180	H	0.530497	0.338432	0.01828
2181	H	0.596117	0.3938	0.460427
2182	H	0.575054	0.415143	0.45078
2183	C	0.515843	0.374728	0.480426
2184	C	0.495636	0.347651	0.455222
2185	H	0.501108	0.368245	0.001543
2186	H	0.519671	0.398786	0.472689
2187	C	0.493691	0.314628	0.46603
2188	H	0.977964	0.305607	0.486586
2189	H	0.981543	0.296159	0.447933
2190	C	0.516584	0.357994	0.425216
2191	H	0.515072	0.379308	0.417105
2192	H	0.004214	0.338728	0.4077
2193	C	0.63211	0.188261	0.429683
2194	C	0.606597	0.180335	0.456651
2195	C	0.666656	0.218853	0.441648
2196	C	0.680283	0.210827	0.472453
2197	H	0.685233	0.225994	0.423498
2198	H	0.663723	0.240513	0.445723
2199	C	0.652532	0.200678	0.497164
2200	C	0.617708	0.171483	0.487475
2201	H	0.652184	0.223477	0.502364
2202	H	0.658667	0.192212	0.018295
2203	H	0.603228	0.20187	0.460097
2204	H	0.582111	0.159428	0.450528
2205	C	0.622633	0.141021	0.480598
2206	C	0.649782	0.147878	0.455483
2207	H	0.629123	0.132921	0.001803
2208	H	0.598636	0.120686	0.472867
2209	C	0.682717	0.17908	0.466243
2210	H	0.691742	0.172533	0.486893
2211	H	0.701228	0.185364	0.44819
2212	C	0.639395	0.158258	0.425375
2213	H	0.618103	0.135338	0.417408
2214	H	0.658657	0.165072	0.407867
2215	C	0.554157	0.188269	0.317976
2216	C	0.571697	0.18036	0.290944
2217	C	0.550093	0.218791	0.305998
2218	C	0.528319	0.210633	0.275255
2219	H	0.538688	0.225948	0.324163
2220	H	0.574656	0.240469	0.301845
2221	C	0.545855	0.200468	0.250493
2222	C	0.551603	0.171363	0.260201
2223	H	0.568959	0.223269	0.245176
2224	H	0.531149	0.191904	0.229423
2225	H	0.596547	0.201945	0.287418
2226	H	0.575406	0.159523	0.297014
2227	C	0.516293	0.140856	0.267231
2228	C	0.496045	0.147718	0.292394
2229	H	0.501613	0.132662	0.246081
2230	H	0.520065	0.12059	0.274964
2231	C	0.494195	0.178851	0.281589
2232	H	0.97854	0.172213	0.260986
2233	H	0.982007	0.18516	0.299657
2234	C	0.516915	0.158241	0.32245
2235	H	0.515371	0.135393	0.330543
2236	H	0.004514	0.16512	0.339948
2237	C	0.631946	0.443315	0.318205
2238	C	0.606489	0.425767	0.291189
2239	C	0.66654	0.447377	0.30625
2240	C	0.680186	0.469134	0.275498
2241	H	0.68509	0.458788	0.324424
2242	H	0.663662	0.422814	0.302115
2243	C	0.652489	0.451566	0.250738
2244	C	0.617623	0.445823	0.260418
2245	H	0.652196	0.428459	0.245465
2246	H	0.658639	0.466242	0.229652
2247	H	0.603184	0.400897	0.287691
2248	H	0.58197	0.422116	0.297284
2249	C	0.622448	0.481155	0.267382
2250	C	0.649547	0.501418	0.29255
2251	H	0.62896	0.495809	0.246216
2252	H	0.598412	0.477415	0.275083
2253	C	0.682537	0.503268	0.281792
2254	H	0.691574	0.018926	0.261195
2255	H	0.701016	0.015449	0.299877
2256	C	0.639168	0.48057	0.322608
2257	H	0.617858	0.482151	0.330593
2258	H	0.65841	0.992988	0.340136
2259	C	0.809303	0.365142	0.318207
2260	C	0.817208	0.390649	0.291244
2261	C	0.778793	0.330559	0.306209
2262	C	0.786924	0.316984	0.275424
2263	H	0.771663	0.31198	0.324353
2264	H	0.757098	0.333423	0.30209
2265	C	0.797041	0.34472	0.25071
2266	C	0.826143	0.379579	0.260439
2267	H	0.774217	0.344994	0.245442
2268	H	0.805591	0.338616	0.229609
2269	H	0.795637	0.393952	0.287778
2270	H	0.838067	0.415155	0.297385
2271	C	0.856668	0.374768	0.267357
2272	C	0.849838	0.347629	0.292476
2273	H	0.864819	0.368302	0.24617
2274	H	0.876952	0.398798	0.275083
2275	C	0.818716	0.314643	0.281692
2276	H	0.825348	0.30565	0.261071
2277	H	0.812435	0.296141	0.299751
2278	C	0.839362	0.357949	0.32256
2279	H	0.862248	0.379268	0.330545
2280	H	0.832568	0.338693	0.340067
2281	C	0.662159	0.088754	0.137532
2282	C	0.662079	0.072173	0.110814
2283	C	0.691266	0.075151	0.097255
2284	C	0.721184	0.10043	0.111115
2285	C	0.721244	0.120203	0.136485
2286	C	0.691395	0.115215	0.150766
2287	H	0.743547	0.105324	0.102183
2288	H	0.639146	0.057558	0.101564
2289	H	0.639312	0.080374	0.147025
2290	H	0.743646	0.137958	0.145113
2291	C	0.908013	0.072307	0.137181
2292	C	0.924482	0.088818	0.110421
2293	C	0.921608	0.115176	0.097075
2294	C	0.896697	0.120129	0.111299
2295	C	0.87702	0.100418	0.136711
2296	C	0.881764	0.07526	0.150688
2297	H	0.89197	0.137798	0.10259
2298	H	0.938988	0.080456	0.100984
2299	H	0.91635	0.057732	0.146495
2300	H	0.859509	0.10528	0.14559
2301	C	0.924869	0.335226	0.137227
2302	C	0.908347	0.335241	0.110501
2303	C	0.881963	0.306043	0.097128
2304	C	0.877145	0.27615	0.111182
2305	C	0.896878	0.27613	0.136553
2306	C	0.921996	0.306006	0.150601
2307	H	0.859512	0.253773	0.102406
2308	H	0.916728	0.358134	0.101122
2309	H	0.939421	0.358114	0.146598
2310	H	0.892102	0.253741	0.145321
2311	C	0.834752	0.408366	0.360961
2312	C	0.834638	0.424813	0.387704
2313	C	0.805399	0.422119	0.400844
2314	C	0.775563	0.397396	0.38644
2315	C	0.77564	0.377716	0.36105
2316	C	0.805568	0.382254	0.347299
2317	H	0.753155	0.392861	0.394957
2318	H	0.857461	0.439221	0.39727
2319	H	0.857707	0.416657	0.35178
2320	H	0.753288	0.360378	0.352
2321	C	0.588559	0.425468	0.360807
2322	C	0.572081	0.408952	0.387555
2323	C	0.574793	0.382463	0.400809
2324	C	0.599643	0.377437	0.386552
2325	C	0.619371	0.397172	0.361169
2326	C	0.614718	0.422413	0.347242
2327	H	0.604249	0.359658	0.395188
2328	H	0.557663	0.417394	0.397048
2329	H	0.580259	0.44009	0.351537
2330	H	0.636813	0.392236	0.352242
2331	C	0.572358	0.162728	0.360225
2332	C	0.588837	0.162683	0.386976
2333	C	0.61495	0.191904	0.400585
2334	C	0.619537	0.221796	0.386712
2335	C	0.599851	0.221807	0.361302
2336	C	0.575064	0.191937	0.346994
2337	H	0.636916	0.244174	0.395687
2338	H	0.580584	0.139754	0.396207
2339	H	0.557941	0.139878	0.350717
2340	H	0.604441	0.244196	0.352684
2341	C	0.627536	0.084921	0.956629
2342	C	0.63247	0.062005	0.973752
2343	C	0.664463	0.070806	0.985347
2344	C	0.691454	0.100102	0.472881
2345	C	0.686461	0.121027	0.453346
2346	C	0.654394	0.117616	0.451426
2347	H	0.715396	0.108589	0.479645
2348	H	0.611668	0.040748	0.980548
2349	H	0.60352	0.079303	0.953039
2350	H	0.707349	0.142413	0.447003
2351	C	0.912478	0.042055	0.956365
2352	C	0.935302	0.069922	0.973507
2353	C	0.926285	0.092932	0.985132
2354	C	0.896997	0.090515	0.472524
2355	C	0.87645	0.064882	0.452528
2356	C	0.87979	0.036146	0.450904
2357	H	0.888348	0.105834	0.479311
2358	H	0.956558	0.070404	0.980349
2359	H	0.918134	0.023695	0.952668
2360	H	0.854997	0.064258	0.44627
2361	C	0.955026	0.370078	0.956239
2362	C	0.927287	0.365095	0.973571
2363	C	0.904219	0.333082	0.985196
2364	C	0.906512	0.306165	0.472533
2365	C	0.93209	0.311191	0.452496
2366	C	0.960875	0.343238	0.450913
2367	H	0.891152	0.282204	0.479315
2368	H	0.926877	0.385878	0.980507
2369	H	0.973505	0.394074	0.952758
2370	H	0.932648	0.290333	0.44622
2371	C	0.912858	0.369986	0.291329
2372	C	0.935681	0.364995	0.274121
2373	C	0.926757	0.332973	0.262537
2374	C	0.897529	0.306053	0.275175
2375	C	0.876862	0.311116	0.295033
2376	C	0.880164	0.343166	0.296643
2377	H	0.888878	0.282107	0.26831
2378	H	0.956896	0.38577	0.267208
2379	H	0.918469	0.394019	0.294788
2380	H	0.855431	0.290159	0.301133
2381	C	0.955335	0.084776	0.291177
2382	C	0.927461	0.061931	0.274039
2383	C	0.90423	0.070762	0.262608
2384	C	0.906555	0.09999	0.275264
2385	C	0.932497	0.120808	0.294836
2386	C	0.961196	0.117454	0.296583
2387	H	0.891073	0.108501	0.268649
2388	H	0.927011	0.040714	0.267121
2389	H	0.973741	0.079143	0.294641
2390	H	0.933002	0.142157	0.30133
2391	C	0.627275	0.042098	0.291253
2392	C	0.632313	0.070002	0.274181
2393	C	0.664355	0.093078	0.262638
2394	C	0.691228	0.090685	0.275276
2395	C	0.686138	0.064995	0.295191
2396	C	0.654077	0.036236	0.296751
2397	H	0.715204	0.106044	0.268536
2398	H	0.611534	0.070464	0.267309
2399	H	0.603261	0.023713	0.294907
2400	H	0.706974	0.064397	0.301472
2401	C	0.869628	0.413434	0.541542
2402	C	0.864547	0.436155	0.524263
2403	C	0.832485	0.427172	0.512746
2404	C	0.805626	0.397964	0.025483
2405	C	0.810743	0.377425	0.045458
2406	C	0.842818	0.38075	0.046911
2407	H	0.781638	0.389329	0.018776
2408	H	0.885295	0.457351	0.51727
2409	H	0.893644	0.418973	0.544939
2410	H	0.789921	0.356007	0.051794
2411	C	0.583926	0.455628	0.541363
2412	C	0.561047	0.427772	0.524227
2413	C	0.569911	0.404611	0.512693
2414	C	0.599135	0.406897	0.025317
2415	C	0.619899	0.432701	0.045067
2416	C	0.616603	0.461456	0.046632
2417	H	0.607737	0.391553	0.01848
2418	H	0.539839	0.427349	0.517313
2419	H	0.578354	0.47408	0.544788
2420	H	0.641331	0.433166	0.051147
2421	C	0.541424	0.128	0.541212
2422	C	0.569288	0.133044	0.524046
2423	C	0.592457	0.165092	0.512544
2424	C	0.590092	0.191994	0.025148
2425	C	0.564176	0.186868	0.044751
2426	C	0.535514	0.154792	0.046578
2427	H	0.60553	0.215975	0.018481
2428	H	0.56977	0.11228	0.517171
2429	H	0.52305	0.103957	0.544726
2430	H	0.563641	0.207708	0.051208
2431	C	0.584319	0.127975	0.206346
2432	C	0.561447	0.132982	0.223447
2433	C	0.570414	0.164995	0.235076
2434	C	0.599704	0.191901	0.222506
2435	C	0.620319	0.186868	0.202557
2436	C	0.616991	0.154804	0.200937
2437	H	0.608313	0.215857	0.229311
2438	H	0.540192	0.11219	0.230268
2439	H	0.578692	0.103972	0.202629
2440	H	0.641781	0.207715	0.196346
2441	C	0.541745	0.41323	0.206196
2442	C	0.56946	0.435976	0.223558
2443	C	0.592471	0.427003	0.235276
2444	C	0.590152	0.397752	0.222688
2445	C	0.564617	0.377208	0.202617
2446	C	0.535866	0.380521	0.200926
2447	H	0.605467	0.389123	0.229544
2448	H	0.569893	0.457197	0.230438
2449	H	0.523293	0.418772	0.202644
2450	H	0.56404	0.355768	0.196394
2451	C	0.869353	0.455638	0.206448
2452	C	0.864414	0.427837	0.223653
2453	C	0.832435	0.404763	0.235344
2454	C	0.805466	0.407079	0.222841
2455	C	0.810448	0.43279	0.202994
2456	C	0.842515	0.461505	0.201269
2457	H	0.781552	0.391797	0.229796
2458	H	0.885211	0.427386	0.230474
2459	H	0.893373	0.474055	0.202914
2460	H	0.78947	0.433269	0.196992
2461	C	0.756146	0.479711	0.01756
2462	C	0.74451	0.999846	0.030501
2463	C	0.734884	0.018878	0.012294
2464	C	0.740301	0.017694	0.480207
2465	C	0.751981	0.49759	0.467289
2466	C	0.761634	0.47857	0.485471
2467	H	0.735593	0.031398	0.464923
2468	H	0.740631	0.998365	0.053652
2469	H	0.760811	0.465966	0.032838
2470	H	0.755769	0.498989	0.444124
2471	C	0.516922	0.275697	0.01759
2472	C	0.996769	0.243926	0.030527
2473	C	0.977803	0.215264	0.012328
2474	C	0.978935	0.221851	0.480232
2475	C	0.499092	0.253621	0.467292
2476	C	0.518074	0.282282	0.485491
2477	H	0.965196	0.20344	0.464957
2478	H	0.998247	0.241537	0.05368
2479	H	0.530668	0.294101	0.032869
2480	H	0.497628	0.256025	0.44414
2481	C	0.721449	0.241296	0.017641
2482	C	0.753225	0.252887	0.030557
2483	C	0.781893	0.262552	0.012361
2484	C	0.77526	0.257158	0.480264
2485	C	0.743487	0.245562	0.467335
2486	C	0.714832	0.235899	0.485555
2487	H	0.793661	0.261832	0.464974
2488	H	0.75563	0.256717	0.053714
2489	H	0.703038	0.236589	0.032929
2490	H	0.741082	0.241704	0.444183
2491	C	0.517524	0.241033	0.230069
2492	C	0.99735	0.25262	0.217123
2493	C	0.978411	0.262321	0.235356
2494	C	0.979522	0.256852	0.267444
2495	C	0.499698	0.245247	0.280356
2496	C	0.51875	0.235631	0.262161
2497	H	0.965793	0.261531	0.282725
2498	H	0.998807	0.256488	0.193972
2499	H	0.531247	0.236349	0.214786
2500	H	0.49825	0.241411	0.303513
2501	C	0.721419	0.479925	0.230369
2502	C	0.753191	9.1e-05	0.217431
2503	C	0.781852	0.019097	0.235642
2504	C	0.775245	0.01789	0.267728
2505	C	0.743458	0.497772	0.280643
2506	C	0.714785	0.478727	0.262461
2507	H	0.793661	0.031589	0.283013
2508	H	0.755587	0.998634	0.194278
2509	H	0.703017	0.46619	0.215084
2510	H	0.741061	0.499169	0.303806
2511	C	0.756487	0.275836	0.230266
2512	C	0.744824	0.244072	0.217297
2513	C	0.735125	0.215388	0.235463
2514	C	0.74062	0.221944	0.267563
2515	C	0.752261	0.253701	0.280537
2516	C	0.761938	0.282381	0.26237
2517	H	0.735962	0.203517	0.282816
2518	H	0.74096	0.241711	0.194143
2519	H	0.761163	0.294263	0.215012
2520	H	0.756163	0.256079	0.303685
2521	C	0.68755	0.054273	0.568194
2522	C	0.679679	0.071884	0.541214
2523	C	0.718048	0.050172	0.556202
2524	C	0.709897	0.028449	0.525425
2525	H	0.725165	0.038718	0.574356
2526	H	0.739755	0.074723	0.552083
2527	C	0.699799	0.046074	0.500701
2528	C	0.670724	0.05187	0.510418
2529	H	0.722639	0.069156	0.495433
2530	H	0.691237	0.031421	0.979602
2531	H	0.701273	0.096743	0.537744
2532	H	0.658839	0.07557	0.547335
2533	C	0.640177	0.016553	0.51735
2534	C	0.646977	0.996226	0.542476
2535	H	0.632006	0.001933	0.996164
2536	H	0.619912	0.020328	0.525081
2537	C	0.678085	0.994328	0.531692
2538	H	0.671446	0.4787	0.511076
2539	H	0.684359	0.482104	0.549754
2540	C	0.657476	0.017034	0.57256
2541	H	0.634606	0.015488	0.580568
2542	H	0.664271	0.504566	0.590063
2543	C	0.942501	0.132435	0.568052
2544	C	0.92499	0.106977	0.541022
2545	C	0.946487	0.166995	0.556092
2546	C	0.968232	0.180658	0.525342
2547	H	0.957871	0.185554	0.574264
2548	H	0.921901	0.164063	0.551957
2549	C	0.950724	0.152954	0.500575
2550	C	0.945061	0.118121	0.510263
2551	H	0.92759	0.152599	0.495291
2552	H	0.965415	0.159132	0.979494
2553	H	0.90011	0.103643	0.537508
2554	H	0.921354	0.082459	0.547094
2555	C	0.980412	0.123011	0.517258
2556	C	0.00063	0.150125	0.542426
2557	H	0.995079	0.129536	0.9961
2558	H	0.976707	0.098993	0.524978
2559	C	0.002392	0.183073	0.531653
2560	H	0.51803	0.192124	0.511044
2561	H	0.514565	0.201564	0.549731
2562	C	0.979771	0.139717	0.572489
2563	H	0.981365	0.118427	0.580531
2564	H	0.492156	0.158982	0.590006
2565	C	0.864738	0.309761	0.568116
2566	C	0.890171	0.317681	0.541072
2567	C	0.830123	0.279283	0.556129
2568	C	0.816502	0.287499	0.525415
2569	H	0.811577	0.272123	0.574308
2570	H	0.832972	0.257591	0.551935
2571	C	0.844189	0.297658	0.500639
2572	C	0.87907	0.326722	0.510352
2573	H	0.844448	0.27484	0.495298
2574	H	0.838049	0.306252	0.979588
2575	H	0.89342	0.296091	0.53751
2576	H	0.914722	0.338501	0.547163
2577	C	0.874303	0.357245	0.51743
2578	C	0.847216	0.350386	0.542614
2579	H	0.867822	0.365476	0.996301
2580	H	0.898357	0.377482	0.525166
2581	C	0.814202	0.319297	0.531802
2582	H	0.805186	0.325997	0.511236
2583	H	0.795721	0.312967	0.549887
2584	C	0.857551	0.339804	0.572631
2585	H	0.878861	0.362646	0.58071
2586	H	0.838286	0.332928	0.590148
2587	C	0.942919	0.309684	0.679615
2588	C	0.925421	0.317626	0.706656
2589	C	0.946979	0.279156	0.691584
2590	C	0.968792	0.28731	0.722304
2591	H	0.958352	0.271981	0.6734
2592	H	0.922419	0.257487	0.695762
2593	C	0.951292	0.297496	0.747082
2594	C	0.945541	0.326607	0.737388
2595	H	0.928196	0.274696	0.752408
2596	H	0.966021	0.306058	0.76814
2597	H	0.900561	0.296061	0.7102
2598	H	0.921744	0.338479	0.700574
2599	C	0.98086	0.357098	0.730351
2600	C	0.00107	0.350212	0.705167
2601	H	0.995555	0.365286	0.751492
2602	H	0.977105	0.37738	0.722627
2603	C	0.002923	0.319078	0.715945
2604	H	0.518605	0.32572	0.736527
2605	H	0.515079	0.312757	0.697853
2606	C	0.980171	0.339694	0.675134
2607	H	0.981742	0.362562	0.66708
2608	H	0.49255	0.332813	0.657613
2609	C	0.864588	0.0544	0.679752
2610	C	0.890079	0.071957	0.706746
2611	C	0.830015	0.050365	0.691746
2612	C	0.816408	0.028632	0.722515
2613	H	0.811444	0.038949	0.67359
2614	H	0.832914	0.074936	0.695876
2615	C	0.844145	0.046204	0.74724
2616	C	0.878992	0.051917	0.737525
2617	H	0.844456	0.06932	0.7525
2618	H	0.838022	0.031549	0.76834
2619	H	0.893392	0.09683	0.710248
2620	H	0.914591	0.075606	0.700623
2621	C	0.874132	0.016571	0.730557
2622	C	0.846992	0.996308	0.705424
2623	H	0.867663	0.001934	0.751732
2624	H	0.898141	0.020287	0.722801
2625	C	0.814027	0.994487	0.71622
2626	H	0.805015	0.478856	0.736836
2627	H	0.795525	0.482291	0.698153
2628	C	0.857348	0.017141	0.675352
2629	H	0.878653	0.015565	0.667321
2630	H	0.838078	0.504715	0.657846
2631	C	0.687755	0.13254	0.679734
2632	C	0.679783	0.107111	0.706794
2633	C	0.718292	0.167119	0.69171
2634	C	0.710123	0.180787	0.722418
2635	H	0.725493	0.185671	0.673528
2636	H	0.739945	0.164205	0.695906
2637	C	0.699892	0.153101	0.747206
2638	C	0.670776	0.118255	0.7375
2639	H	0.722672	0.152772	0.752555
2640	H	0.691324	0.159283	0.76825
2641	H	0.701345	0.103815	0.710365
2642	H	0.658932	0.082571	0.700733
2643	C	0.640305	0.123101	0.730413
2644	C	0.647233	0.1502	0.705213
2645	H	0.632103	0.12962	0.751537
2646	H	0.620025	0.09907	0.72268
2647	C	0.678372	0.183171	0.716016
2648	H	0.671719	0.192223	0.736586
2649	H	0.684729	0.201652	0.697924
2650	C	0.657773	0.139812	0.675194
2651	H	0.634915	0.118533	0.667087
2652	H	0.664706	0.159088	0.657679
2653	C	0.80903	0.443098	0.929796
2654	C	0.817008	0.425673	0.956888
2655	C	0.778486	0.447138	0.941749
2656	C	0.786662	0.469012	0.972432
2657	H	0.771276	0.458462	0.923551
2658	H	0.75684	0.422572	0.945966
2659	C	0.796907	0.451598	0.997247
2660	C	0.826033	0.44587	0.987567
2661	H	0.774133	0.428489	0.002607
2662	H	0.805469	0.466374	0.518278
2663	H	0.795447	0.400823	0.960489
2664	H	0.837853	0.421969	0.950847
2665	C	0.856489	0.48118	0.980429
2666	C	0.849546	0.501316	0.955209
2667	H	0.864704	0.495929	0.50154
2668	H	0.87677	0.477429	0.972693
2669	C	0.818401	0.503148	0.966005
2670	H	0.825052	0.018871	0.986561
2671	H	0.812038	0.015251	0.947899
2672	C	0.838997	0.480348	0.92521
2673	H	0.861848	0.481917	0.917087
2674	H	0.832043	0.992662	0.907684
2675	C	0.553803	0.365169	0.929775
2676	C	0.571291	0.390575	0.956844
2677	C	0.549652	0.330547	0.941758
2678	C	0.527778	0.316912	0.972451
2679	H	0.53828	0.312008	0.92357
2680	H	0.574187	0.333391	0.945973
2681	C	0.545269	0.344578	0.997249
2682	C	0.551112	0.379467	0.987542
2683	H	0.568333	0.344827	0.002628
2684	H	0.530497	0.338432	0.51828
2685	H	0.596117	0.3938	0.960427
2686	H	0.575054	0.415143	0.950778
2687	C	0.515843	0.374728	0.980427
2688	C	0.495636	0.347651	0.955222
2689	H	0.501108	0.368245	0.501542
2690	H	0.519671	0.398786	0.972689
2691	C	0.493691	0.314628	0.96603
2692	H	0.977964	0.305607	0.986586
2693	H	0.981543	0.296159	0.947931
2694	C	0.516584	0.357994	0.925217
2695	H	0.515072	0.379308	0.917103
2696	H	0.004214	0.338728	0.907698
2697	C	0.63211	0.188261	0.929684
2698	C	0.606597	0.180335	0.956649
2699	C	0.666656	0.218853	0.941646
2700	C	0.680283	0.210827	0.972453
2701	H	0.685233	0.225994	0.923499
2702	H	0.663723	0.240513	0.945723
2703	C	0.652532	0.200678	0.997162
2704	C	0.617708	0.171483	0.987473
2705	H	0.652184	0.223477	0.002364
2706	H	0.658667	0.192212	0.518294
2707	H	0.603228	0.20187	0.960097
2708	H	0.582111	0.159428	0.950527
2709	C	0.622633	0.141021	0.980599
2710	C	0.649782	0.147878	0.955484
2711	H	0.629123	0.132921	0.501803
2712	H	0.598636	0.120686	0.972865
2713	C	0.682717	0.17908	0.966243
2714	H	0.691742	0.172533	0.986893
2715	H	0.701228	0.185364	0.94819
2716	C	0.639395	0.158258	0.925375
2717	H	0.618103	0.135338	0.917408
2718	H	0.658657	0.165072	0.907865
2719	C	0.554157	0.188269	0.817976
2720	C	0.571697	0.18036	0.790944
2721	C	0.550093	0.218791	0.805996
2722	C	0.528319	0.210633	0.775253
2723	H	0.538688	0.225948	0.824163
2724	H	0.574656	0.240469	0.801843
2725	C	0.545855	0.200468	0.750491
2726	C	0.551603	0.171363	0.760201
2727	H	0.568959	0.223269	0.745176
2728	H	0.531149	0.191904	0.729421
2729	H	0.596547	0.201945	0.787419
2730	H	0.575406	0.159523	0.797014
2731	C	0.516293	0.140856	0.767231
2732	C	0.496045	0.147718	0.792394
2733	H	0.501613	0.132662	0.746081
2734	H	0.520065	0.12059	0.774964
2735	C	0.494195	0.178851	0.781589
2736	H	0.97854	0.172213	0.760987
2737	H	0.982007	0.18516	0.799656
2738	C	0.516915	0.158241	0.82245
2739	H	0.515371	0.135393	0.830543
2740	H	0.004514	0.16512	0.839949
2741	C	0.631946	0.443315	0.818205
2742	C	0.606489	0.425767	0.791189
2743	C	0.66654	0.447377	0.80625
2744	C	0.680186	0.469134	0.775496
2745	H	0.68509	0.458788	0.824425
2746	H	0.663662	0.422814	0.802116
2747	C	0.652489	0.451566	0.750738
2748	C	0.617623	0.445823	0.760418
2749	H	0.652196	0.428459	0.745465
2750	H	0.658639	0.466242	0.729652
2751	H	0.603184	0.400897	0.787691
2752	H	0.58197	0.422116	0.797285
2753	C	0.622448	0.481155	0.767382
2754	C	0.649547	0.501418	0.792548
2755	H	0.62896	0.495809	0.746216
2756	H	0.598412	0.477415	0.775083
2757	C	0.682537	0.503268	0.781793
2758	H	0.691574	0.018926	0.761195
2759	H	0.701016	0.015449	0.799878
2760	C	0.639168	0.48057	0.822606
2761	H	0.617858	0.482151	0.830593
2762	H	0.65841	0.992988	0.840136
2763	C	0.809303	0.365142	0.818208
2764	C	0.817208	0.390649	0.791244
2765	C	0.778793	0.330559	0.806207
2766	C	0.786924	0.316984	0.775422
2767	H	0.771663	0.31198	0.824354
2768	H	0.757098	0.333423	0.80209
2769	C	0.797041	0.34472	0.750708
2770	C	0.826143	0.379579	0.760439
2771	H	0.774217	0.344994	0.745442
2772	H	0.805591	0.338616	0.729609
2773	H	0.795637	0.393952	0.787778
2774	H	0.838067	0.415155	0.797385
2775	C	0.856668	0.374768	0.767357
2776	C	0.849838	0.347629	0.792477
2777	H	0.864819	0.368302	0.74617
2778	H	0.876952	0.398798	0.775083
2779	C	0.818716	0.314643	0.78169
2780	H	0.825348	0.30565	0.761069
2781	H	0.812435	0.296141	0.799749
2782	C	0.839362	0.357949	0.82256
2783	H	0.862248	0.379268	0.830543
2784	H	0.832568	0.338693	0.840068
2785	C	0.662159	0.088754	0.637533
2786	C	0.662079	0.072173	0.610814
2787	C	0.691266	0.075151	0.597256
2788	C	0.721184	0.10043	0.611114
2789	C	0.721244	0.120203	0.636486
2790	C	0.691395	0.115215	0.650766
2791	H	0.743547	0.105324	0.602183
2792	H	0.639146	0.057558	0.601564
2793	H	0.639312	0.080374	0.647025
2794	H	0.743646	0.137958	0.645113
2795	C	0.908013	0.072307	0.63718
2796	C	0.924482	0.088818	0.61042
2797	C	0.921608	0.115176	0.597075
2798	C	0.896697	0.120129	0.6113
2799	C	0.87702	0.100418	0.63671
2800	C	0.881764	0.07526	0.650688
2801	H	0.89197	0.137798	0.602591
2802	H	0.938988	0.080456	0.600983
2803	H	0.91635	0.057732	0.646494
2804	H	0.859509	0.10528	0.645589
2805	C	0.924869	0.335226	0.637226
2806	C	0.908347	0.335241	0.6105
2807	C	0.881963	0.306043	0.597127
2808	C	0.877145	0.27615	0.611181
2809	C	0.896878	0.27613	0.636552
2810	C	0.921996	0.306006	0.650601
2811	H	0.859512	0.253773	0.602405
2812	H	0.916728	0.358134	0.601122
2813	H	0.939421	0.358114	0.646597
2814	H	0.892102	0.253741	0.645321
2815	C	0.834752	0.408366	0.860959
2816	C	0.834638	0.424813	0.887702
2817	C	0.805399	0.422119	0.900844
2818	C	0.775563	0.397396	0.88644
2819	C	0.77564	0.377716	0.861048
2820	C	0.805568	0.382254	0.847299
2821	H	0.753155	0.392861	0.894957
2822	H	0.857461	0.439221	0.897268
2823	H	0.857707	0.416657	0.851778
2824	H	0.753288	0.360378	0.851998
2825	C	0.588559	0.425468	0.860807
2826	C	0.572081	0.408952	0.887556
2827	C	0.574793	0.382463	0.900807
2828	C	0.599643	0.377437	0.886552
2829	C	0.619371	0.397172	0.861169
2830	C	0.614718	0.422413	0.847242
2831	H	0.604249	0.359658	0.895188
2832	H	0.557663	0.417394	0.897048
2833	H	0.580259	0.44009	0.851537
2834	H	0.636813	0.392236	0.85224
2835	C	0.572358	0.162728	0.860226
2836	C	0.588837	0.162683	0.886976
2837	C	0.61495	0.191904	0.900585
2838	C	0.619537	0.221796	0.886713
2839	C	0.599851	0.221807	0.861302
2840	C	0.575064	0.191937	0.846995
2841	H	0.636916	0.244174	0.895685
2842	H	0.580584	0.139754	0.896208
2843	H	0.557941	0.139878	0.850717
2844	H	0.604441	0.244196	0.852685
2845	C	0.627536	0.084921	0.456629
2846	C	0.63247	0.062005	0.473751
2847	C	0.664463	0.070806	0.485347
2848	C	0.691454	0.100102	0.972881
2849	C	0.686461	0.121027	0.953346
2850	C	0.654394	0.117616	0.951424
2851	H	0.715396	0.108589	0.979646
2852	H	0.611668	0.040748	0.48055
2853	H	0.60352	0.079303	0.453039
2854	H	0.707349	0.142413	0.947003
2855	C	0.912478	0.042055	0.456367
2856	C	0.935302	0.069922	0.473506
2857	C	0.926285	0.092932	0.485134
2858	C	0.896997	0.090515	0.972524
2859	C	0.87645	0.064882	0.952529
2860	C	0.87979	0.036146	0.950904
2861	H	0.888348	0.105834	0.979311
2862	H	0.956558	0.070404	0.480349
2863	H	0.918134	0.023695	0.45267
2864	H	0.854997	0.064258	0.94627
2865	C	0.955026	0.370078	0.456239
2866	C	0.927287	0.365095	0.47357
2867	C	0.904219	0.333082	0.485198
2868	C	0.906512	0.306165	0.972533
2869	C	0.93209	0.311191	0.952496
2870	C	0.960875	0.343238	0.950914
2871	H	0.891152	0.282204	0.979316
2872	H	0.926877	0.385878	0.480507
2873	H	0.973505	0.394074	0.452757
2874	H	0.932648	0.290333	0.94622
2875	C	0.912858	0.369986	0.791329
2876	C	0.935681	0.364995	0.774119
2877	C	0.926757	0.332973	0.762537
2878	C	0.897529	0.306053	0.775175
2879	C	0.876862	0.311116	0.795033
2880	C	0.880164	0.343166	0.796643
2881	H	0.888878	0.282107	0.76831
2882	H	0.956896	0.38577	0.767208
2883	H	0.918469	0.394019	0.794788
2884	H	0.855431	0.290159	0.801131
2885	C	0.955335	0.084776	0.791178
2886	C	0.927461	0.061931	0.774039
2887	C	0.90423	0.070762	0.762608
2888	C	0.906555	0.09999	0.775264
2889	C	0.932497	0.120808	0.794836
2890	C	0.961196	0.117454	0.796584
2891	H	0.891073	0.108501	0.768649
2892	H	0.927011	0.040714	0.767121
2893	H	0.973741	0.079143	0.794641
2894	H	0.933002	0.142157	0.80133
2895	C	0.627275	0.042098	0.791253
2896	C	0.632313	0.070002	0.774181
2897	C	0.664355	0.093078	0.762638
2898	C	0.691228	0.090685	0.775274
2899	C	0.686138	0.064995	0.795191
2900	C	0.654077	0.036236	0.796751
2901	H	0.715204	0.106044	0.768534
2902	H	0.611534	0.070464	0.767307
2903	H	0.603261	0.023713	0.794907
2904	H	0.706974	0.064397	0.801472
2905	C	0.869628	0.413434	0.041542
2906	C	0.864547	0.436155	0.024264
2907	C	0.832485	0.427172	0.012746
2908	C	0.805626	0.397964	0.525482
2909	C	0.810743	0.377425	0.545457
2910	C	0.842818	0.38075	0.546911
2911	H	0.781638	0.389329	0.518777
2912	H	0.885295	0.457351	0.01727
2913	H	0.893644	0.418973	0.044939
2914	H	0.789921	0.356007	0.551793
2915	C	0.583926	0.455628	0.041363
2916	C	0.561047	0.427772	0.024227
2917	C	0.569911	0.404611	0.012693
2918	C	0.599135	0.406897	0.525317
2919	C	0.619899	0.432701	0.545067
2920	C	0.616603	0.461456	0.546632
2921	H	0.607737	0.391553	0.518479
2922	H	0.539839	0.427349	0.017314
2923	H	0.578354	0.47408	0.044788
2924	H	0.641331	0.433166	0.551147
2925	C	0.541424	0.128	0.041211
2926	C	0.569288	0.133044	0.024047
2927	C	0.592457	0.165092	0.012545
2928	C	0.590092	0.191994	0.525147
2929	C	0.564176	0.186868	0.544751
2930	C	0.535514	0.154792	0.546577
2931	H	0.60553	0.215975	0.518481
2932	H	0.56977	0.11228	0.017171
2933	H	0.52305	0.103957	0.044726
2934	H	0.563641	0.207708	0.551208
2935	C	0.584319	0.127975	0.706345
2936	C	0.561447	0.132982	0.723447
2937	C	0.570414	0.164995	0.735077
2938	C	0.599704	0.191901	0.722505
2939	C	0.620319	0.186868	0.702558
2940	C	0.616991	0.154804	0.700936
2941	H	0.608313	0.215857	0.729311
2942	H	0.540192	0.11219	0.730269
2943	H	0.578692	0.103972	0.702629
2944	H	0.641781	0.207715	0.696346
2945	C	0.541745	0.41323	0.706196
2946	C	0.56946	0.435976	0.723557
2947	C	0.592471	0.427003	0.735276
2948	C	0.590152	0.397752	0.722689
2949	C	0.564617	0.377208	0.702615
2950	C	0.535866	0.380521	0.700925
2951	H	0.605467	0.389123	0.729545
2952	H	0.569893	0.457197	0.730438
2953	H	0.523293	0.418772	0.702645
2954	H	0.56404	0.355768	0.696394
2955	C	0.869353	0.455638	0.706448
2956	C	0.864414	0.427837	0.723653
2957	C	0.832435	0.404763	0.735345
2958	C	0.805466	0.407079	0.722842
2959	C	0.810448	0.43279	0.702993
2960	C	0.842515	0.461505	0.701269
2961	H	0.781552	0.391797	0.729797
2962	H	0.885211	0.427386	0.730475
2963	H	0.893373	0.474055	0.702913
2964	H	0.78947	0.433269	0.696992
2965	C	0.756146	0.479711	0.517558
2966	C	0.74451	0.999846	0.530501
2967	C	0.734884	0.018878	0.512294
2968	C	0.740301	0.017694	0.980207
2969	C	0.751981	0.49759	0.967287
2970	C	0.761634	0.47857	0.985469
2971	H	0.735593	0.031398	0.964921
2972	H	0.740631	0.998365	0.553653
2973	H	0.760811	0.465966	0.532837
2974	H	0.755769	0.498989	0.944124
2975	C	0.516922	0.275697	0.51759
2976	C	0.996769	0.243926	0.530526
2977	C	0.977803	0.215264	0.512329
2978	C	0.978935	0.221851	0.980232
2979	C	0.499092	0.253621	0.967292
2980	C	0.518074	0.282282	0.985491
2981	H	0.965196	0.20344	0.964955
2982	H	0.998247	0.241537	0.55368
2983	H	0.530668	0.294101	0.532869
2984	H	0.497628	0.256025	0.94414
2985	C	0.721449	0.241296	0.517641
2986	C	0.753225	0.252887	0.530558
2987	C	0.781893	0.262552	0.512361
2988	C	0.77526	0.257158	0.980264
2989	C	0.743487	0.245562	0.967336
2990	C	0.714832	0.235899	0.985556
2991	H	0.793661	0.261832	0.964974
2992	H	0.75563	0.256717	0.553714
2993	H	0.703038	0.236589	0.532929
2994	H	0.741082	0.241704	0.944181
2995	C	0.517524	0.241033	0.730069
2996	C	0.99735	0.25262	0.717122
2997	C	0.978411	0.262321	0.735354
2998	C	0.979522	0.256852	0.767442
2999	C	0.499698	0.245247	0.780357
3000	C	0.51875	0.235631	0.762162
3001	H	0.965793	0.261531	0.782725
3002	H	0.998807	0.256488	0.69397
3003	H	0.531247	0.236349	0.714786
3004	H	0.49825	0.241411	0.803513
3005	C	0.721419	0.479925	0.730369
3006	C	0.753191	9.1e-05	0.717432
3007	C	0.781852	0.019097	0.735642
3008	C	0.775245	0.01789	0.767728
3009	C	0.743458	0.497772	0.780641
3010	C	0.714785	0.478727	0.762462
3011	H	0.793661	0.031589	0.783014
3012	H	0.755587	0.998634	0.694277
3013	H	0.703017	0.46619	0.715084
3014	H	0.741061	0.499169	0.803804
3015	C	0.756487	0.275836	0.730266
3016	C	0.744824	0.244072	0.717296
3017	C	0.735125	0.215388	0.735464
3018	C	0.74062	0.221944	0.767561
3019	C	0.752261	0.253701	0.780537
3020	C	0.761938	0.282381	0.762368
3021	H	0.735962	0.203517	0.782814
3022	H	0.74096	0.241711	0.694142
3023	H	0.761163	0.294263	0.71501
3024	H	0.756163	0.256079	0.803685
3025	C	0.68755	0.554273	0.068194
3026	C	0.679678	0.571883	0.041215
3027	C	0.718047	0.550171	0.056203
3028	C	0.709897	0.528449	0.025425
3029	H	0.725164	0.538717	0.074355
3030	H	0.739753	0.574724	0.052083
3031	C	0.699799	0.546074	0.000701
3032	C	0.670724	0.551869	0.01042
3033	H	0.722639	0.569156	0.995433
3034	H	0.691236	0.53142	0.479602
3035	H	0.70127	0.596743	0.037745
3036	H	0.658838	0.575569	0.047334
3037	C	0.640176	0.516552	0.017349
3038	C	0.646977	0.496227	0.042476
3039	H	0.632006	0.501933	0.496166
3040	H	0.619912	0.520328	0.025081
3041	C	0.678086	0.494327	0.031693
3042	H	0.671445	0.978698	0.011076
3043	H	0.68436	0.982105	0.049754
3044	C	0.657475	0.517033	0.072561
3045	H	0.634606	0.515489	0.080568
3046	H	0.664271	0.004566	0.090064
3047	C	0.942498	0.632433	0.068052
3048	C	0.92499	0.606976	0.041021
3049	C	0.946485	0.666996	0.056093
3050	C	0.968233	0.680659	0.025342
3051	H	0.95787	0.685553	0.074264
3052	H	0.921901	0.664062	0.051957
3053	C	0.950724	0.652952	0.000576
3054	C	0.94506	0.618121	0.010263
3055	H	0.92759	0.652599	0.995291
3056	H	0.965414	0.659131	0.479496
3057	H	0.90011	0.603644	0.037508
3058	H	0.921355	0.58246	0.047096
3059	C	0.980412	0.623012	0.017259
3060	C	0.000629	0.650126	0.042426
3061	H	0.995079	0.629535	0.496099
3062	H	0.976707	0.598994	0.024977
3063	C	0.002391	0.683072	0.031654
3064	H	0.518031	0.692125	0.011045
3065	H	0.514564	0.701564	0.049732
3066	C	0.97977	0.639716	0.072489
3067	H	0.981366	0.618427	0.080532
3068	H	0.492156	0.658982	0.090005
3069	C	0.864739	0.809762	0.068117
3070	C	0.890172	0.817682	0.041073
3071	C	0.830123	0.779284	0.056129
3072	C	0.816502	0.7875	0.025415
3073	H	0.811577	0.772124	0.074308
3074	H	0.832973	0.757592	0.051934
3075	C	0.844188	0.797656	0.00064
3076	C	0.87907	0.826722	0.010352
3077	H	0.844448	0.774841	0.995298
3078	H	0.838049	0.806253	0.479588
3079	H	0.893419	0.796089	0.03751
3080	H	0.914721	0.838499	0.047164
3081	C	0.874302	0.857243	0.01743
3082	C	0.847213	0.850384	0.042614
3083	H	0.867823	0.865476	0.496301
3084	H	0.898357	0.877483	0.025165
3085	C	0.8142	0.819298	0.031801
3086	H	0.805187	0.825997	0.011236
3087	H	0.795721	0.812967	0.049887
3088	C	0.85755	0.839802	0.072632
3089	H	0.878862	0.862647	0.08071
3090	H	0.838285	0.832926	0.090148
3091	C	0.942918	0.809682	0.179616
3092	C	0.925421	0.817627	0.206657
3093	C	0.946979	0.779154	0.191584
3094	C	0.968792	0.78731	0.222305
3095	H	0.958352	0.771982	0.173401
3096	H	0.922418	0.757485	0.195761
3097	C	0.951292	0.797496	0.247082
3098	C	0.94554	0.826605	0.237388
3099	H	0.928196	0.774696	0.252408
3100	H	0.966021	0.806059	0.26814
3101	H	0.90056	0.796059	0.2102
3102	H	0.921744	0.83848	0.200574
3103	C	0.98086	0.857098	0.230351
3104	C	0.001071	0.850212	0.205167
3105	H	0.995554	0.865284	0.251491
3106	H	0.977104	0.877378	0.222628
3107	C	0.002923	0.819079	0.215946
3108	H	0.518605	0.825721	0.236529
3109	H	0.515078	0.812758	0.197854
3110	C	0.980168	0.839692	0.175135
3111	H	0.981742	0.862562	0.167081
3112	H	0.492547	0.832811	0.157612
3113	C	0.864588	0.5544	0.179753
3114	C	0.89008	0.571958	0.206745
3115	C	0.830016	0.550365	0.191746
3116	C	0.816408	0.528633	0.222514
3117	H	0.811442	0.538949	0.173591
3118	H	0.832915	0.574936	0.195877
3119	C	0.844145	0.546204	0.24724
3120	C	0.878992	0.551917	0.237525
3121	H	0.844456	0.56932	0.252502
3122	H	0.838022	0.53155	0.268339
3123	H	0.893392	0.59683	0.210248
3124	H	0.914591	0.575606	0.200623
3125	C	0.874129	0.51657	0.230557
3126	C	0.846992	0.496307	0.205425
3127	H	0.867663	0.501933	0.251732
3128	H	0.898141	0.520288	0.2228
3129	C	0.814027	0.494487	0.216219
3130	H	0.805015	0.978857	0.236836
3131	H	0.795526	0.982291	0.198153
3132	C	0.857348	0.51714	0.175352
3133	H	0.878651	0.515566	0.167322
3134	H	0.838081	0.004716	0.157846
3135	C	0.687755	0.632541	0.179734
3136	C	0.679783	0.60711	0.206795
3137	C	0.718291	0.667118	0.191711
3138	C	0.710122	0.680786	0.222418
3139	H	0.725492	0.68567	0.17353
3140	H	0.739944	0.664204	0.195907
3141	C	0.699892	0.653099	0.247206
3142	C	0.670773	0.618255	0.237502
3143	H	0.722671	0.652771	0.252554
3144	H	0.691322	0.659283	0.26825
3145	H	0.701345	0.603816	0.210365
3146	H	0.658932	0.582572	0.200732
3147	C	0.640305	0.623102	0.230413
3148	C	0.647233	0.6502	0.205214
3149	H	0.632103	0.629619	0.251537
3150	H	0.620024	0.599069	0.222681
3151	C	0.678372	0.683172	0.216017
3152	H	0.671719	0.692222	0.236586
3153	H	0.684728	0.701651	0.197924
3154	C	0.657773	0.639813	0.175193
3155	H	0.634916	0.618534	0.167087
3156	H	0.664707	0.659089	0.15768
3157	C	0.809029	0.943096	0.429796
3158	C	0.817009	0.925673	0.456887
3159	C	0.778486	0.947138	0.441751
3160	C	0.786659	0.96901	0.472432
3161	H	0.771277	0.958463	0.423551
3162	H	0.756841	0.922573	0.445965
3163	C	0.796906	0.951596	0.497247
3164	C	0.826033	0.945871	0.487566
3165	H	0.774134	0.92849	0.502607
3166	H	0.805469	0.966375	0.018279
3167	H	0.795448	0.900823	0.460488
3168	H	0.837853	0.92197	0.450847
3169	C	0.856489	0.981181	0.480429
3170	C	0.849546	0.001316	0.455211
3171	H	0.864704	0.995929	0.001539
3172	H	0.87677	0.97743	0.472693
3173	C	0.818403	0.003148	0.466004
3174	H	0.825052	0.518871	0.486561
3175	H	0.812038	0.515252	0.447899
3176	C	0.838998	0.980349	0.42521
3177	H	0.861848	0.981918	0.417089
3178	H	0.832044	0.492664	0.407686
3179	C	0.553802	0.86517	0.429775
3180	C	0.57129	0.890575	0.456844
3181	C	0.549651	0.830547	0.441757
3182	C	0.527777	0.816912	0.472453
3183	H	0.53828	0.812008	0.423569
3184	H	0.574187	0.833392	0.445972
3185	C	0.545269	0.844579	0.497249
3186	C	0.551112	0.879465	0.487541
3187	H	0.568333	0.844828	0.502628
3188	H	0.530498	0.838432	0.01828
3189	H	0.596118	0.8938	0.460427
3190	H	0.575052	0.915141	0.45078
3191	C	0.515842	0.874728	0.480426
3192	C	0.495636	0.847652	0.455222
3193	H	0.501108	0.868246	0.001543
3194	H	0.519672	0.898786	0.472689
3195	C	0.493691	0.814628	0.46603
3196	H	0.977964	0.805608	0.486586
3197	H	0.981544	0.796159	0.447933
3198	C	0.516584	0.857995	0.425216
3199	H	0.515072	0.879308	0.417105
3200	H	0.004213	0.838729	0.4077
3201	C	0.632108	0.68826	0.429683
3202	C	0.606597	0.680335	0.456651
3203	C	0.666656	0.718853	0.441648
3204	C	0.680283	0.710826	0.472453
3205	H	0.685233	0.725993	0.423498
3206	H	0.663723	0.740512	0.445723
3207	C	0.652532	0.700677	0.497164
3208	C	0.617705	0.671481	0.487475
3209	H	0.652184	0.723477	0.502364
3210	H	0.658667	0.692212	0.018295
3211	H	0.603229	0.70187	0.460097
3212	H	0.582109	0.659428	0.450528
3213	C	0.622633	0.641021	0.480598
3214	C	0.649781	0.647877	0.455483
3215	H	0.629121	0.632922	0.001803
3216	H	0.598636	0.620686	0.472867
3217	C	0.682717	0.67908	0.466243
3218	H	0.691741	0.672532	0.486893
3219	H	0.701228	0.685363	0.44819
3220	C	0.639395	0.658257	0.425375
3221	H	0.618102	0.635337	0.417408
3222	H	0.658654	0.665071	0.407867
3223	C	0.554157	0.68827	0.317976
3224	C	0.571697	0.68036	0.290944
3225	C	0.550093	0.71879	0.305998
3226	C	0.52832	0.710634	0.275255
3227	H	0.538689	0.725948	0.324163
3228	H	0.574655	0.74047	0.301845
3229	C	0.545855	0.700468	0.250493
3230	C	0.551602	0.671362	0.260201
3231	H	0.568958	0.723268	0.245176
3232	H	0.531149	0.691903	0.229423
3233	H	0.596548	0.701945	0.287418
3234	H	0.575405	0.659522	0.297014
3235	C	0.516293	0.640856	0.267231
3236	C	0.496045	0.647717	0.292394
3237	H	0.501613	0.632663	0.246081
3238	H	0.520065	0.620589	0.274964
3239	C	0.494195	0.678851	0.281589
3240	H	0.97854	0.672214	0.260986
3241	H	0.982006	0.685159	0.299657
3242	C	0.516915	0.65824	0.32245
3243	H	0.515371	0.635392	0.330543
3244	H	0.004514	0.665121	0.339948
3245	C	0.631944	0.943313	0.318205
3246	C	0.60649	0.925768	0.291189
3247	C	0.666541	0.947378	0.30625
3248	C	0.680184	0.969132	0.275498
3249	H	0.68509	0.958789	0.324424
3250	H	0.663661	0.922814	0.302115
3251	C	0.652488	0.951564	0.250738
3252	C	0.617622	0.945824	0.260418
3253	H	0.652196	0.928458	0.245465
3254	H	0.658639	0.966243	0.229652
3255	H	0.603182	0.900896	0.287691
3256	H	0.58197	0.922117	0.297284
3257	C	0.622447	0.981153	0.267382
3258	C	0.649547	0.001418	0.29255
3259	H	0.62896	0.99581	0.246216
3260	H	0.59841	0.977413	0.275083
3261	C	0.682538	0.003269	0.281792
3262	H	0.691574	0.518926	0.261195
3263	H	0.701016	0.515449	0.299877
3264	C	0.639168	0.98057	0.322608
3265	H	0.617857	0.982152	0.330593
3266	H	0.65841	0.492987	0.340136
3267	C	0.809304	0.865142	0.318207
3268	C	0.817207	0.890647	0.291244
3269	C	0.778792	0.830557	0.306209
3270	C	0.786923	0.816982	0.275424
3271	H	0.771662	0.811978	0.324353
3272	H	0.757098	0.833424	0.30209
3273	C	0.79704	0.844718	0.25071
3274	C	0.82614	0.879577	0.260439
3275	H	0.774217	0.844995	0.245442
3276	H	0.805591	0.838617	0.229609
3277	H	0.795636	0.89395	0.287778
3278	H	0.838067	0.915156	0.297385
3279	C	0.856666	0.874768	0.267357
3280	C	0.849839	0.847629	0.292476
3281	H	0.864819	0.868303	0.24617
3282	H	0.876952	0.898799	0.275083
3283	C	0.818716	0.814643	0.281692
3284	H	0.825349	0.80565	0.261071
3285	H	0.812434	0.796139	0.299751
3286	C	0.839362	0.85795	0.32256
3287	H	0.862248	0.879268	0.330545
3288	H	0.832565	0.838691	0.340067
3289	C	0.662158	0.588753	0.137532
3290	C	0.66208	0.572174	0.110814
3291	C	0.691266	0.57515	0.097255
3292	C	0.721184	0.600431	0.111115
3293	C	0.721244	0.620203	0.136485
3294	C	0.691395	0.615214	0.150766
3295	H	0.743547	0.605325	0.102183
3296	H	0.639146	0.557558	0.101564
3297	H	0.63931	0.580373	0.147025
3298	H	0.743646	0.637957	0.145113
3299	C	0.908011	0.572306	0.137181
3300	C	0.92448	0.588818	0.110421
3301	C	0.921607	0.615175	0.097075
3302	C	0.896697	0.620128	0.111299
3303	C	0.87702	0.600419	0.136711
3304	C	0.881764	0.57526	0.150688
3305	H	0.89197	0.637798	0.10259
3306	H	0.938987	0.580455	0.100984
3307	H	0.91635	0.557732	0.146495
3308	H	0.859509	0.60528	0.14559
3309	C	0.924868	0.835224	0.137227
3310	C	0.908346	0.835239	0.110501
3311	C	0.881961	0.806044	0.097128
3312	C	0.877144	0.776148	0.111182
3313	C	0.896878	0.776131	0.136553
3314	C	0.921995	0.806004	0.150601
3315	H	0.859511	0.753771	0.102406
3316	H	0.916726	0.858134	0.101122
3317	H	0.939421	0.858114	0.146598
3318	H	0.892102	0.753741	0.145321
3319	C	0.834751	0.908364	0.360961
3320	C	0.834636	0.924814	0.387704
3321	C	0.805397	0.922119	0.400844
3322	C	0.775563	0.897396	0.38644
3323	C	0.77564	0.877717	0.36105
3324	C	0.805567	0.882252	0.347299
3325	H	0.753155	0.892861	0.394957
3326	H	0.857461	0.939221	0.39727
3327	H	0.857706	0.916655	0.35178
3328	H	0.753288	0.860378	0.352
3329	C	0.588557	0.925466	0.360807
3330	C	0.57208	0.908952	0.387555
3331	C	0.574794	0.882464	0.400809
3332	C	0.599644	0.877438	0.386552
3333	C	0.619371	0.897172	0.361169
3334	C	0.614718	0.922413	0.347242
3335	H	0.604248	0.859656	0.395188
3336	H	0.557664	0.917395	0.397048
3337	H	0.580259	0.94009	0.351537
3338	H	0.636811	0.892234	0.352242
3339	C	0.572358	0.662727	0.360225
3340	C	0.588837	0.662683	0.386976
3341	C	0.61495	0.691903	0.400585
3342	C	0.619537	0.721796	0.386712
3343	C	0.599848	0.721806	0.361302
3344	C	0.575064	0.691938	0.346994
3345	H	0.636915	0.744173	0.395687
3346	H	0.580584	0.639753	0.396207
3347	H	0.557939	0.639877	0.350717
3348	H	0.604441	0.744196	0.352684
3349	C	0.627536	0.58492	0.956629
3350	C	0.632471	0.562006	0.973752
3351	C	0.664463	0.570807	0.985347
3352	C	0.691452	0.600102	0.472881
3353	C	0.686461	0.621027	0.453346
3354	C	0.654394	0.617615	0.451426
3355	H	0.715396	0.60859	0.479645
3356	H	0.611668	0.540747	0.980548
3357	H	0.603519	0.579302	0.953039
3358	H	0.707349	0.642413	0.447003
3359	C	0.912477	0.542055	0.956365
3360	C	0.9353	0.569923	0.973507
3361	C	0.926282	0.592932	0.985132
3362	C	0.896996	0.590514	0.472524
3363	C	0.87645	0.564882	0.452528
3364	C	0.87979	0.536147	0.450904
3365	H	0.888348	0.605833	0.479311
3366	H	0.956558	0.570403	0.980349
3367	H	0.918134	0.523695	0.952668
3368	H	0.854997	0.564257	0.44627
3369	C	0.955025	0.870076	0.956239
3370	C	0.927286	0.865093	0.973571
3371	C	0.90422	0.833083	0.985196
3372	C	0.906512	0.806166	0.472533
3373	C	0.93209	0.811192	0.452496
3374	C	0.960874	0.843236	0.450913
3375	H	0.891152	0.782205	0.479315
3376	H	0.926877	0.885878	0.980507
3377	H	0.973505	0.894074	0.952758
3378	H	0.932647	0.790331	0.44622
3379	C	0.912858	0.869986	0.291329
3380	C	0.935681	0.864995	0.274121
3381	C	0.926755	0.832973	0.262537
3382	C	0.897528	0.806051	0.275175
3383	C	0.876861	0.811114	0.295033
3384	C	0.880164	0.843167	0.296643
3385	H	0.888875	0.782105	0.26831
3386	H	0.956896	0.885771	0.267208
3387	H	0.918469	0.894019	0.294788
3388	H	0.855429	0.79016	0.301133
3389	C	0.955335	0.584776	0.291177
3390	C	0.92746	0.561931	0.274039
3391	C	0.90423	0.570762	0.262608
3392	C	0.906552	0.59999	0.275264
3393	C	0.932497	0.620808	0.294836
3394	C	0.961196	0.617453	0.296583
3395	H	0.891073	0.6085	0.268649
3396	H	0.927011	0.540715	0.267121
3397	H	0.973741	0.579143	0.294641
3398	H	0.933002	0.642156	0.30133
3399	C	0.627274	0.542097	0.291253
3400	C	0.632313	0.570003	0.274181
3401	C	0.664355	0.593077	0.262638
3402	C	0.691228	0.590686	0.275276
3403	C	0.686138	0.564994	0.295191
3404	C	0.654077	0.536234	0.296751
3405	H	0.715204	0.606045	0.268536
3406	H	0.611534	0.570463	0.267309
3407	H	0.60326	0.523712	0.294907
3408	H	0.706974	0.564396	0.301472
3409	C	0.869628	0.913435	0.541542
3410	C	0.864547	0.936156	0.524263
3411	C	0.832484	0.92717	0.512746
3412	C	0.805626	0.897964	0.025483
3413	C	0.810741	0.877425	0.045458
3414	C	0.842817	0.880748	0.046911
3415	H	0.781637	0.88933	0.018776
3416	H	0.885295	0.957352	0.51727
3417	H	0.893644	0.918974	0.544939
3418	H	0.789921	0.856007	0.051794
3419	C	0.583925	0.955626	0.541363
3420	C	0.561047	0.927773	0.524227
3421	C	0.569911	0.904611	0.512693
3422	C	0.599136	0.906898	0.025317
3423	C	0.619899	0.932701	0.045067
3424	C	0.616604	0.961456	0.046632
3425	H	0.607737	0.891554	0.01848
3426	H	0.539838	0.927347	0.517313
3427	H	0.578354	0.97408	0.544788
3428	H	0.641329	0.933164	0.051147
3429	C	0.541422	0.628	0.541212
3430	C	0.569288	0.633044	0.524046
3431	C	0.592457	0.665091	0.512544
3432	C	0.590092	0.691993	0.025148
3433	C	0.564175	0.686868	0.044751
3434	C	0.535513	0.65479	0.046578
3435	H	0.60553	0.715976	0.018481
3436	H	0.56977	0.612281	0.517171
3437	H	0.523051	0.603957	0.544726
3438	H	0.563641	0.707708	0.051208
3439	C	0.584319	0.627976	0.206346
3440	C	0.561447	0.632981	0.223447
3441	C	0.570414	0.664996	0.235076
3442	C	0.599702	0.691901	0.222506
3443	C	0.620319	0.686868	0.202557
3444	C	0.61699	0.654803	0.200937
3445	H	0.608313	0.715857	0.229311
3446	H	0.540191	0.612188	0.230268
3447	H	0.578693	0.603972	0.202629
3448	H	0.641782	0.707715	0.196346
3449	C	0.541745	0.913228	0.206196
3450	C	0.569459	0.935974	0.223558
3451	C	0.592471	0.927001	0.235276
3452	C	0.590153	0.897753	0.222688
3453	C	0.564615	0.877206	0.202617
3454	C	0.535866	0.880521	0.200926
3455	H	0.605467	0.889123	0.229544
3456	H	0.569892	0.957195	0.230438
3457	H	0.523293	0.918772	0.202644
3458	H	0.56404	0.855768	0.196394
3459	C	0.869354	0.955638	0.206448
3460	C	0.864415	0.927837	0.223653
3461	C	0.832435	0.904763	0.235344
3462	C	0.805467	0.907079	0.222841
3463	C	0.810447	0.932788	0.202994
3464	C	0.842514	0.961503	0.201269
3465	H	0.781553	0.891798	0.229796
3466	H	0.885212	0.927387	0.230474
3467	H	0.893373	0.974055	0.202914
3468	H	0.78947	0.933269	0.196992
3469	C	0.756145	0.979709	0.01756
3470	C	0.74451	0.499846	0.030501
3471	C	0.734884	0.518878	0.012294
3472	C	0.740302	0.517695	0.480207
3473	C	0.751981	0.99759	0.467289
3474	C	0.761635	0.978571	0.485471
3475	H	0.735593	0.531398	0.464923
3476	H	0.740632	0.498367	0.053652
3477	H	0.760811	0.965966	0.032838
3478	H	0.75577	0.99899	0.444124
3479	C	0.51692	0.775695	0.01759
3480	C	0.996769	0.743927	0.030527
3481	C	0.977803	0.715264	0.012328
3482	C	0.978935	0.721851	0.480232
3483	C	0.49909	0.753619	0.467292
3484	C	0.518074	0.782282	0.485491
3485	H	0.965196	0.703439	0.464957
3486	H	0.998244	0.741536	0.05368
3487	H	0.530666	0.794099	0.032869
3488	H	0.497627	0.756023	0.44414
3489	C	0.72145	0.741297	0.017641
3490	C	0.753224	0.752887	0.030557
3491	C	0.781892	0.76255	0.012361
3492	C	0.77526	0.757158	0.480264
3493	C	0.743488	0.745563	0.467335
3494	C	0.714829	0.735897	0.485555
3495	H	0.793659	0.761833	0.464974
3496	H	0.75563	0.756718	0.053714
3497	H	0.703039	0.73659	0.032929
3498	H	0.741082	0.741705	0.444183
3499	C	0.517522	0.741033	0.230069
3500	C	0.997348	0.752621	0.217123
3501	C	0.97841	0.762319	0.235356
3502	C	0.979521	0.75685	0.267444
3503	C	0.499696	0.745247	0.280356
3504	C	0.518749	0.735631	0.262161
3505	H	0.965793	0.761529	0.282725
3506	H	0.998806	0.756488	0.193972
3507	H	0.531246	0.736348	0.214786
3508	H	0.498249	0.741411	0.303513
3509	C	0.721419	0.979925	0.230369
3510	C	0.75319	0.50009	0.217431
3511	C	0.781853	0.519097	0.235642
3512	C	0.775244	0.51789	0.267728
3513	C	0.743456	0.997772	0.280643
3514	C	0.714785	0.978728	0.262461
3515	H	0.79366	0.531587	0.283013
3516	H	0.755587	0.498633	0.194278
3517	H	0.703017	0.966191	0.215084
3518	H	0.741061	0.999169	0.303806
3519	C	0.756484	0.775834	0.230266
3520	C	0.744823	0.744071	0.217297
3521	C	0.735125	0.715388	0.235463
3522	C	0.74062	0.721943	0.267563
3523	C	0.75226	0.753699	0.280537
3524	C	0.761938	0.782382	0.26237
3525	H	0.735962	0.703516	0.282816
3526	H	0.74096	0.74171	0.194143
3527	H	0.761163	0.794264	0.215012
3528	H	0.756164	0.75608	0.303685
3529	C	0.68755	0.554273	0.568194
3530	C	0.679678	0.571883	0.541214
3531	C	0.718047	0.550171	0.556202
3532	C	0.709897	0.528449	0.525425
3533	H	0.725164	0.538717	0.574356
3534	H	0.739753	0.574724	0.552083
3535	C	0.699799	0.546074	0.500701
3536	C	0.670724	0.551869	0.510418
3537	H	0.722639	0.569156	0.495433
3538	H	0.691236	0.53142	0.979602
3539	H	0.70127	0.596743	0.537744
3540	H	0.658838	0.575569	0.547335
3541	C	0.640176	0.516552	0.51735
3542	C	0.646977	0.496227	0.542476
3543	H	0.632006	0.501933	0.996164
3544	H	0.619912	0.520328	0.525081
3545	C	0.678086	0.494327	0.531692
3546	H	0.671445	0.978698	0.511076
3547	H	0.68436	0.982105	0.549754
3548	C	0.657475	0.517033	0.57256
3549	H	0.634606	0.515489	0.580568
3550	H	0.664271	0.004566	0.590063
3551	C	0.942498	0.632433	0.568052
3552	C	0.92499	0.606976	0.541022
3553	C	0.946485	0.666996	0.556092
3554	C	0.968233	0.680659	0.525342
3555	H	0.95787	0.685553	0.574264
3556	H	0.921901	0.664062	0.551957
3557	C	0.950724	0.652952	0.500575
3558	C	0.94506	0.618121	0.510263
3559	H	0.92759	0.652599	0.495291
3560	H	0.965414	0.659131	0.979494
3561	H	0.90011	0.603644	0.537508
3562	H	0.921355	0.58246	0.547094
3563	C	0.980412	0.623012	0.517258
3564	C	0.000629	0.650126	0.542426
3565	H	0.995079	0.629535	0.9961
3566	H	0.976707	0.598994	0.524978
3567	C	0.002391	0.683072	0.531653
3568	H	0.518031	0.692125	0.511044
3569	H	0.514564	0.701564	0.549731
3570	C	0.97977	0.639716	0.572489
3571	H	0.981366	0.618427	0.580531
3572	H	0.492156	0.658982	0.590006
3573	C	0.864739	0.809762	0.568116
3574	C	0.890172	0.817682	0.541072
3575	C	0.830123	0.779284	0.556129
3576	C	0.816502	0.7875	0.525415
3577	H	0.811577	0.772124	0.574308
3578	H	0.832973	0.757592	0.551935
3579	C	0.844188	0.797656	0.500639
3580	C	0.87907	0.826722	0.510352
3581	H	0.844448	0.774841	0.495298
3582	H	0.838049	0.806253	0.979588
3583	H	0.893419	0.796089	0.53751
3584	H	0.914721	0.838499	0.547163
3585	C	0.874302	0.857243	0.51743
3586	C	0.847213	0.850384	0.542614
3587	H	0.867823	0.865476	0.996301
3588	H	0.898357	0.877483	0.525166
3589	C	0.8142	0.819298	0.531802
3590	H	0.805187	0.825997	0.511236
3591	H	0.795721	0.812967	0.549887
3592	C	0.85755	0.839802	0.572631
3593	H	0.878862	0.862647	0.58071
3594	H	0.838285	0.832926	0.590148
3595	C	0.942918	0.809682	0.679615
3596	C	0.925421	0.817627	0.706656
3597	C	0.946979	0.779154	0.691584
3598	C	0.968792	0.78731	0.722304
3599	H	0.958352	0.771982	0.6734
3600	H	0.922418	0.757485	0.695762
3601	C	0.951292	0.797496	0.747082
3602	C	0.94554	0.826605	0.737388
3603	H	0.928196	0.774696	0.752408
3604	H	0.966021	0.806059	0.76814
3605	H	0.90056	0.796059	0.7102
3606	H	0.921744	0.83848	0.700574
3607	C	0.98086	0.857098	0.730351
3608	C	0.001071	0.850212	0.705167
3609	H	0.995554	0.865284	0.751492
3610	H	0.977104	0.877378	0.722627
3611	C	0.002923	0.819079	0.715945
3612	H	0.518605	0.825721	0.736527
3613	H	0.515078	0.812758	0.697853
3614	C	0.980168	0.839692	0.675134
3615	H	0.981742	0.862562	0.66708
3616	H	0.492547	0.832811	0.657613
3617	C	0.864588	0.5544	0.679752
3618	C	0.89008	0.571958	0.706746
3619	C	0.830016	0.550365	0.691746
3620	C	0.816408	0.528633	0.722515
3621	H	0.811442	0.538949	0.67359
3622	H	0.832915	0.574936	0.695876
3623	C	0.844145	0.546204	0.74724
3624	C	0.878992	0.551917	0.737525
3625	H	0.844456	0.56932	0.7525
3626	H	0.838022	0.53155	0.76834
3627	H	0.893392	0.59683	0.710248
3628	H	0.914591	0.575606	0.700623
3629	C	0.874129	0.51657	0.730557
3630	C	0.846992	0.496307	0.705424
3631	H	0.867663	0.501933	0.751732
3632	H	0.898141	0.520288	0.722801
3633	C	0.814027	0.494487	0.71622
3634	H	0.805015	0.978857	0.736836
3635	H	0.795526	0.982291	0.698153
3636	C	0.857348	0.51714	0.675352
3637	H	0.878651	0.515566	0.667321
3638	H	0.838081	0.004716	0.657846
3639	C	0.687755	0.632541	0.679734
3640	C	0.679783	0.60711	0.706794
3641	C	0.718291	0.667118	0.69171
3642	C	0.710122	0.680786	0.722418
3643	H	0.725492	0.68567	0.673528
3644	H	0.739944	0.664204	0.695906
3645	C	0.699892	0.653099	0.747206
3646	C	0.670773	0.618255	0.7375
3647	H	0.722671	0.652771	0.752555
3648	H	0.691322	0.659283	0.76825
3649	H	0.701345	0.603816	0.710365
3650	H	0.658932	0.582572	0.700733
3651	C	0.640305	0.623102	0.730413
3652	C	0.647233	0.6502	0.705213
3653	H	0.632103	0.629619	0.751537
3654	H	0.620024	0.599069	0.72268
3655	C	0.678372	0.683172	0.716016
3656	H	0.671719	0.692222	0.736586
3657	H	0.684728	0.701651	0.697924
3658	C	0.657773	0.639813	0.675194
3659	H	0.634916	0.618534	0.667087
3660	H	0.664707	0.659089	0.657679
3661	C	0.809029	0.943096	0.929796
3662	C	0.817009	0.925673	0.956888
3663	C	0.778486	0.947138	0.941749
3664	C	0.786659	0.96901	0.972432
3665	H	0.771277	0.958463	0.923551
3666	H	0.756841	0.922573	0.945966
3667	C	0.796906	0.951596	0.997247
3668	C	0.826033	0.945871	0.987567
3669	H	0.774134	0.92849	0.002607
3670	H	0.805469	0.966375	0.518278
3671	H	0.795448	0.900823	0.960489
3672	H	0.837853	0.92197	0.950847
3673	C	0.856489	0.981181	0.980429
3674	C	0.849546	0.001316	0.955209
3675	H	0.864704	0.995929	0.50154
3676	H	0.87677	0.97743	0.972693
3677	C	0.818403	0.003148	0.966005
3678	H	0.825052	0.518871	0.986561
3679	H	0.812038	0.515252	0.947899
3680	C	0.838998	0.980349	0.92521
3681	H	0.861848	0.981918	0.917087
3682	H	0.832044	0.492664	0.907684
3683	C	0.553802	0.86517	0.929775
3684	C	0.57129	0.890575	0.956844
3685	C	0.549651	0.830547	0.941758
3686	C	0.527777	0.816912	0.972451
3687	H	0.53828	0.812008	0.92357
3688	H	0.574187	0.833392	0.945973
3689	C	0.545269	0.844579	0.997249
3690	C	0.551112	0.879465	0.987542
3691	H	0.568333	0.844828	0.002628
3692	H	0.530498	0.838432	0.51828
3693	H	0.596118	0.8938	0.960427
3694	H	0.575052	0.915141	0.950778
3695	C	0.515842	0.874728	0.980427
3696	C	0.495636	0.847652	0.955222
3697	H	0.501108	0.868246	0.501542
3698	H	0.519672	0.898786	0.972689
3699	C	0.493691	0.814628	0.96603
3700	H	0.977964	0.805608	0.986586
3701	H	0.981544	0.796159	0.947931
3702	C	0.516584	0.857995	0.925217
3703	H	0.515072	0.879308	0.917103
3704	H	0.004213	0.838729	0.907698
3705	C	0.632108	0.68826	0.929684
3706	C	0.606597	0.680335	0.956649
3707	C	0.666656	0.718853	0.941646
3708	C	0.680283	0.710826	0.972453
3709	H	0.685233	0.725993	0.923499
3710	H	0.663723	0.740512	0.945723
3711	C	0.652532	0.700677	0.997162
3712	C	0.617705	0.671481	0.987473
3713	H	0.652184	0.723477	0.002364
3714	H	0.658667	0.692212	0.518294
3715	H	0.603229	0.70187	0.960097
3716	H	0.582109	0.659428	0.950527
3717	C	0.622633	0.641021	0.980599
3718	C	0.649781	0.647877	0.955484
3719	H	0.629121	0.632922	0.501803
3720	H	0.598636	0.620686	0.972865
3721	C	0.682717	0.67908	0.966243
3722	H	0.691741	0.672532	0.986893
3723	H	0.701228	0.685363	0.94819
3724	C	0.639395	0.658257	0.925375
3725	H	0.618102	0.635337	0.917408
3726	H	0.658654	0.665071	0.907865
3727	C	0.554157	0.68827	0.817976
3728	C	0.571697	0.68036	0.790944
3729	C	0.550093	0.71879	0.805996
3730	C	0.52832	0.710634	0.775253
3731	H	0.538689	0.725948	0.824163
3732	H	0.574655	0.74047	0.801843
3733	C	0.545855	0.700468	0.750491
3734	C	0.551602	0.671362	0.760201
3735	H	0.568958	0.723268	0.745176
3736	H	0.531149	0.691903	0.729421
3737	H	0.596548	0.701945	0.787419
3738	H	0.575405	0.659522	0.797014
3739	C	0.516293	0.640856	0.767231
3740	C	0.496045	0.647717	0.792394
3741	H	0.501613	0.632663	0.746081
3742	H	0.520065	0.620589	0.774964
3743	C	0.494195	0.678851	0.781589
3744	H	0.97854	0.672214	0.760987
3745	H	0.982006	0.685159	0.799656
3746	C	0.516915	0.65824	0.82245
3747	H	0.515371	0.635392	0.830543
3748	H	0.004514	0.665121	0.839949
3749	C	0.631944	0.943313	0.818205
3750	C	0.60649	0.925768	0.791189
3751	C	0.666541	0.947378	0.80625
3752	C	0.680184	0.969132	0.775496
3753	H	0.68509	0.958789	0.824425
3754	H	0.663661	0.922814	0.802116
3755	C	0.652488	0.951564	0.750738
3756	C	0.617622	0.945824	0.760418
3757	H	0.652196	0.928458	0.745465
3758	H	0.658639	0.966243	0.729652
3759	H	0.603182	0.900896	0.787691
3760	H	0.58197	0.922117	0.797285
3761	C	0.622447	0.981153	0.767382
3762	C	0.649547	0.001418	0.792548
3763	H	0.62896	0.99581	0.746216
3764	H	0.59841	0.977413	0.775083
3765	C	0.682538	0.003269	0.781793
3766	H	0.691574	0.518926	0.761195
3767	H	0.701016	0.515449	0.799878
3768	C	0.639168	0.98057	0.822606
3769	H	0.617857	0.982152	0.830593
3770	H	0.65841	0.492987	0.840136
3771	C	0.809304	0.865142	0.818208
3772	C	0.817207	0.890647	0.791244
3773	C	0.778792	0.830557	0.806207
3774	C	0.786923	0.816982	0.775422
3775	H	0.771662	0.811978	0.824354
3776	H	0.757098	0.833424	0.80209
3777	C	0.79704	0.844718	0.750708
3778	C	0.82614	0.879577	0.760439
3779	H	0.774217	0.844995	0.745442
3780	H	0.805591	0.838617	0.729609
3781	H	0.795636	0.89395	0.787778
3782	H	0.838067	0.915156	0.797385
3783	C	0.856666	0.874768	0.767357
3784	C	0.849839	0.847629	0.792477
3785	H	0.864819	0.868303	0.74617
3786	H	0.876952	0.898799	0.775083
3787	C	0.818716	0.814643	0.78169
3788	H	0.825349	0.80565	0.761069
3789	H	0.812434	0.796139	0.799749
3790	C	0.839362	0.85795	0.82256
3791	H	0.862248	0.879268	0.830543
3792	H	0.832565	0.838691	0.840068
3793	C	0.662158	0.588753	0.637533
3794	C	0.66208	0.572174	0.610814
3795	C	0.691266	0.57515	0.597256
3796	C	0.721184	0.600431	0.611114
3797	C	0.721244	0.620203	0.636486
3798	C	0.691395	0.615214	0.650766
3799	H	0.743547	0.605325	0.602183
3800	H	0.639146	0.557558	0.601564
3801	H	0.63931	0.580373	0.647025
3802	H	0.743646	0.637957	0.645113
3803	C	0.908011	0.572306	0.63718
3804	C	0.92448	0.588818	0.61042
3805	C	0.921607	0.615175	0.597075
3806	C	0.896697	0.620128	0.6113
3807	C	0.87702	0.600419	0.63671
3808	C	0.881764	0.57526	0.650688
3809	H	0.89197	0.637798	0.602591
3810	H	0.938987	0.580455	0.600983
3811	H	0.91635	0.557732	0.646494
3812	H	0.859509	0.60528	0.645589
3813	C	0.924868	0.835224	0.637226
3814	C	0.908346	0.835239	0.6105
3815	C	0.881961	0.806044	0.597127
3816	C	0.877144	0.776148	0.611181
3817	C	0.896878	0.776131	0.636552
3818	C	0.921995	0.806004	0.650601
3819	H	0.859511	0.753771	0.602405
3820	H	0.916726	0.858134	0.601122
3821	H	0.939421	0.858114	0.646597
3822	H	0.892102	0.753741	0.645321
3823	C	0.834751	0.908364	0.860959
3824	C	0.834636	0.924814	0.887702
3825	C	0.805397	0.922119	0.900844
3826	C	0.775563	0.897396	0.88644
3827	C	0.77564	0.877717	0.861048
3828	C	0.805567	0.882252	0.847299
3829	H	0.753155	0.892861	0.894957
3830	H	0.857461	0.939221	0.897268
3831	H	0.857706	0.916655	0.851778
3832	H	0.753288	0.860378	0.851998
3833	C	0.588557	0.925466	0.860807
3834	C	0.57208	0.908952	0.887556
3835	C	0.574794	0.882464	0.900807
3836	C	0.599644	0.877438	0.886552
3837	C	0.619371	0.897172	0.861169
3838	C	0.614718	0.922413	0.847242
3839	H	0.604248	0.859656	0.895188
3840	H	0.557664	0.917395	0.897048
3841	H	0.580259	0.94009	0.851537
3842	H	0.636811	0.892234	0.85224
3843	C	0.572358	0.662727	0.860226
3844	C	0.588837	0.662683	0.886976
3845	C	0.61495	0.691903	0.900585
3846	C	0.619537	0.721796	0.886713
3847	C	0.599848	0.721806	0.861302
3848	C	0.575064	0.691938	0.846995
3849	H	0.636915	0.744173	0.895685
3850	H	0.580584	0.639753	0.896208
3851	H	0.557939	0.639877	0.850717
3852	H	0.604441	0.744196	0.852685
3853	C	0.627536	0.58492	0.456629
3854	C	0.632471	0.562006	0.473751
3855	C	0.664463	0.570807	0.485347
3856	C	0.691452	0.600102	0.972881
3857	C	0.686461	0.621027	0.953346
3858	C	0.654394	0.617615	0.951424
3859	H	0.715396	0.60859	0.979646
3860	H	0.611668	0.540747	0.48055
3861	H	0.603519	0.579302	0.453039
3862	H	0.707349	0.642413	0.947003
3863	C	0.912477	0.542055	0.456367
3864	C	0.9353	0.569923	0.473506
3865	C	0.926282	0.592932	0.485134
3866	C	0.896996	0.590514	0.972524
3867	C	0.87645	0.564882	0.952529
3868	C	0.87979	0.536147	0.950904
3869	H	0.888348	0.605833	0.979311
3870	H	0.956558	0.570403	0.480349
3871	H	0.918134	0.523695	0.45267
3872	H	0.854997	0.564257	0.94627
3873	C	0.955025	0.870076	0.456239
3874	C	0.927286	0.865093	0.47357
3875	C	0.90422	0.833083	0.485198
3876	C	0.906512	0.806166	0.972533
3877	C	0.93209	0.811192	0.952496
3878	C	0.960874	0.843236	0.950914
3879	H	0.891152	0.782205	0.979316
3880	H	0.926877	0.885878	0.480507
3881	H	0.973505	0.894074	0.452757
3882	H	0.932647	0.790331	0.94622
3883	C	0.912858	0.869986	0.791329
3884	C	0.935681	0.864995	0.774119
3885	C	0.926755	0.832973	0.762537
3886	C	0.897528	0.806051	0.775175
3887	C	0.876861	0.811114	0.795033
3888	C	0.880164	0.843167	0.796643
3889	H	0.888875	0.782105	0.76831
3890	H	0.956896	0.885771	0.767208
3891	H	0.918469	0.894019	0.794788
3892	H	0.855429	0.79016	0.801131
3893	C	0.955335	0.584776	0.791178
3894	C	0.92746	0.561931	0.774039
3895	C	0.90423	0.570762	0.762608
3896	C	0.906552	0.59999	0.775264
3897	C	0.932497	0.620808	0.794836
3898	C	0.961196	0.617453	0.796584
3899	H	0.891073	0.6085	0.768649
3900	H	0.927011	0.540715	0.767121
3901	H	0.973741	0.579143	0.794641
3902	H	0.933002	0.642156	0.80133
3903	C	0.627274	0.542097	0.791253
3904	C	0.632313	0.570003	0.774181
3905	C	0.664355	0.593077	0.762638
3906	C	0.691228	0.590686	0.775274
3907	C	0.686138	0.564994	0.795191
3908	C	0.654077	0.536234	0.796751
3909	H	0.715204	0.606045	0.768534
3910	H	0.611534	0.570463	0.767307
3911	H	0.60326	0.523712	0.794907
3912	H	0.706974	0.564396	0.801472
3913	C	0.869628	0.913435	0.041542
3914	C	0.864547	0.936156	0.024264
3915	C	0.832484	0.92717	0.012746
3916	C	0.805626	0.897964	0.525482
3917	C	0.810741	0.877425	0.545457
3918	C	0.842817	0.880748	0.546911
3919	H	0.781637	0.88933	0.518777
3920	H	0.885295	0.957352	0.01727
3921	H	0.893644	0.918974	0.044939
3922	H	0.789921	0.856007	0.551793
3923	C	0.583925	0.955626	0.041363
3924	C	0.561047	0.927773	0.024227
3925	C	0.569911	0.904611	0.012693
3926	C	0.599136	0.906898	0.525317
3927	C	0.619899	0.932701	0.545067
3928	C	0.616604	0.961456	0.546632
3929	H	0.607737	0.891554	0.518479
3930	H	0.539838	0.927347	0.017314
3931	H	0.578354	0.97408	0.044788
3932	H	0.641329	0.933164	0.551147
3933	C	0.541422	0.628	0.041211
3934	C	0.569288	0.633044	0.024047
3935	C	0.592457	0.665091	0.012545
3936	C	0.590092	0.691993	0.525147
3937	C	0.564175	0.686868	0.544751
3938	C	0.535513	0.65479	0.546577
3939	H	0.60553	0.715976	0.518481
3940	H	0.56977	0.612281	0.017171
3941	H	0.523051	0.603957	0.044726
3942	H	0.563641	0.707708	0.551208
3943	C	0.584319	0.627976	0.706345
3944	C	0.561447	0.632981	0.723447
3945	C	0.570414	0.664996	0.735077
3946	C	0.599702	0.691901	0.722505
3947	C	0.620319	0.686868	0.702558
3948	C	0.61699	0.654803	0.700936
3949	H	0.608313	0.715857	0.729311
3950	H	0.540191	0.612188	0.730269
3951	H	0.578693	0.603972	0.702629
3952	H	0.641782	0.707715	0.696346
3953	C	0.541745	0.913228	0.706196
3954	C	0.569459	0.935974	0.723557
3955	C	0.592471	0.927001	0.735276
3956	C	0.590153	0.897753	0.722689
3957	C	0.564615	0.877206	0.702615
3958	C	0.535866	0.880521	0.700925
3959	H	0.605467	0.889123	0.729545
3960	H	0.569892	0.957195	0.730438
3961	H	0.523293	0.918772	0.702645
3962	H	0.56404	0.855768	0.696394
3963	C	0.869354	0.955638	0.706448
3964	C	0.864415	0.927837	0.723653
3965	C	0.832435	0.904763	0.735345
3966	C	0.805467	0.907079	0.722842
3967	C	0.810447	0.932788	0.702993
3968	C	0.842514	0.961503	0.701269
3969	H	0.781553	0.891798	0.729797
3970	H	0.885212	0.927387	0.730475
3971	H	0.893373	0.974055	0.702913
3972	H	0.78947	0.933269	0.696992
3973	C	0.756145	0.979709	0.517558
3974	C	0.74451	0.499846	0.530501
3975	C	0.734884	0.518878	0.512294
3976	C	0.740302	0.517695	0.980207
3977	C	0.751981	0.99759	0.967287
3978	C	0.761635	0.978571	0.985469
3979	H	0.735593	0.531398	0.964921
3980	H	0.740632	0.498367	0.553653
3981	H	0.760811	0.965966	0.532837
3982	H	0.75577	0.99899	0.944124
3983	C	0.51692	0.775695	0.51759
3984	C	0.996769	0.743927	0.530526
3985	C	0.977803	0.715264	0.512329
3986	C	0.978935	0.721851	0.980232
3987	C	0.49909	0.753619	0.967292
3988	C	0.518074	0.782282	0.985491
3989	H	0.965196	0.703439	0.964955
3990	H	0.998244	0.741536	0.55368
3991	H	0.530666	0.794099	0.532869
3992	H	0.497627	0.756023	0.94414
3993	C	0.72145	0.741297	0.517641
3994	C	0.753224	0.752887	0.530558
3995	C	0.781892	0.76255	0.512361
3996	C	0.77526	0.757158	0.980264
3997	C	0.743488	0.745563	0.967336
3998	C	0.714829	0.735897	0.985556
3999	H	0.793659	0.761833	0.964974
4000	H	0.75563	0.756718	0.553714
4001	H	0.703039	0.73659	0.532929
4002	H	0.741082	0.741705	0.944181
4003	C	0.517522	0.741033	0.730069
4004	C	0.997348	0.752621	0.717122
4005	C	0.97841	0.762319	0.735354
4006	C	0.979521	0.75685	0.767442
4007	C	0.499696	0.745247	0.780357
4008	C	0.518749	0.735631	0.762162
4009	H	0.965793	0.761529	0.782725
4010	H	0.998806	0.756488	0.69397
4011	H	0.531246	0.736348	0.714786
4012	H	0.498249	0.741411	0.803513
4013	C	0.721419	0.979925	0.730369
4014	C	0.75319	0.50009	0.717432
4015	C	0.781853	0.519097	0.735642
4016	C	0.775244	0.51789	0.767728
4017	C	0.743456	0.997772	0.780641
4018	C	0.714785	0.978728	0.762462
4019	H	0.79366	0.531587	0.783014
4020	H	0.755587	0.498633	0.694277
4021	H	0.703017	0.966191	0.715084
4022	H	0.741061	0.999169	0.803804
4023	C	0.756484	0.775834	0.730266
4024	C	0.744823	0.744071	0.717296
4025	C	0.735125	0.715388	0.735464
4026	C	0.74062	0.721943	0.767561
4027	C	0.75226	0.753699	0.780537
4028	C	0.761938	0.782382	0.762368
4029	H	0.735962	0.703516	0.782814
4030	H	0.74096	0.74171	0.694142
4031	H	0.761163	0.794264	0.71501
4032	H	0.756164	0.75608	0.803685
