data_C896H448_2018-02-15_12:17:00
#******************************************
#
# CIF file created by Zeo++
# Zeo++ is an open source package to
# analyze microporous materials
#
#*******************************************

_cell_length_a		28.172   
_cell_length_b		28.0478   
_cell_length_c		40.7573   
_cell_angle_alpha		90   
_cell_angle_beta		90   
_cell_angle_gamma		90   

_symmetry_space_group_name_H-M		'P1'
_symmetry_Int_Tables_number		1
_symmetry_cell_setting		Orthorhombic

loop_
_symmetry_equiv_pos_as_xyz
'+x,+y,+z'

loop_
_atom_site_label
_atom_site_type_symbol
_atom_site_fract_x
_atom_site_fract_y
_atom_site_fract_z
1	C	0.252347	0.615567	0.106389
2	C	0.28461	0.591326	0.126942
3	C	0.316811	0.615695	0.147466
4	H	0.284674	0.554728	0.126955
5	C	0.010817	0.533946	0.040854
6	C	0.137223	0.499889	0.022795
7	C	0.086654	0.50046	0.022315
8	H	0.197854	0.467662	0.002169
9	C	0.060454	0.533928	0.040861
10	H	0.07707	0.559527	0.054511
11	C	0.162409	0.525196	0.078205
12	C	0.190547	0.553869	0.098828
13	C	0.222887	0.587244	0.085524
14	C	0.226894	0.590474	0.051002
15	C	0.198359	0.562208	0.03038
16	C	0.16539	0.529468	0.043687
17	H	0.250664	0.61356	0.040584
18	H	0.18718	0.550236	0.12371
19	H	0.139605	0.501141	0.088613
20	H	0.2018	0.565766	0.005497
21	C	0.251717	0.666366	0.106847
22	C	0.31734	0.666487	0.146943
23	C	0.010147	0.467748	0.00208
24	C	0.061098	0.467705	0.002105
25	C	0.161416	0.467655	0.002156
26	H	0.492844	0.560162	0.199192
27	H	0.575728	0.560065	0.199132
28	C	0.407412	0.52597	0.175579
29	C	0.379039	0.554436	0.154975
30	C	0.346427	0.587515	0.168309
31	H	0.382415	0.55086	0.13009
32	H	0.43036	0.502071	0.16515
33	C	0.661171	0.525781	0.175472
34	H	0.638169	0.50195	0.165027
35	C	0.751537	0.666116	0.146967
36	C	0.752037	0.615321	0.147444
37	C	0.784272	0.590966	0.126935
38	C	0.816577	0.615239	0.10643
39	C	0.817216	0.666038	0.106918
40	H	0.784201	0.554368	0.12692
41	C	0.931979	0.500011	0.022734
42	C	0.982546	0.500524	0.02228
43	H	0.992152	0.559573	0.054488
44	C	0.90679	0.525196	0.078175
45	C	0.878535	0.553708	0.098828
46	C	0.84606	0.586969	0.08555
47	C	0.842049	0.590271	0.051032
48	C	0.870701	0.562165	0.030385
49	C	0.903795	0.529521	0.043661
50	H	0.818206	0.613299	0.040636
51	H	0.881918	0.55005	0.123707
52	H	0.929671	0.501191	0.088561
53	H	0.867244	0.565759	0.005506
54	C	0.689667	0.554165	0.15489
55	C	0.722366	0.587133	0.16825
56	H	0.686306	0.550621	0.130002
57	C	0.136882	0.934537	0.02225
58	C	0.086316	0.933934	0.021745
59	C	0.060125	0.900434	0.040266
60	C	0.010488	0.900434	0.040279
61	H	0.07675	0.874803	0.053882
62	C	0.284507	0.74327	0.126813
63	C	0.251692	0.768884	0.106736
64	C	0.252309	0.819679	0.106158
65	C	0.284578	0.844052	0.126633
66	C	0.316815	0.819797	0.147197
67	C	0.317346	0.768998	0.146805
68	C	0.218184	0.742504	0.088393
69	H	0.284623	0.880647	0.126554
70	C	0.284511	0.692097	0.126873
71	C	0.218196	0.692643	0.088448
72	H	0.192542	0.675921	0.074968
73	H	0.192525	0.75915	0.074872
74	C	0.226944	0.844512	0.050713
75	C	0.198292	0.872528	0.03001
76	C	0.165064	0.905091	0.043222
77	C	0.161937	0.90943	0.077731
78	C	0.190204	0.881017	0.098439
79	C	0.222817	0.847842	0.085223
80	H	0.138958	0.933378	0.088073
81	H	0.201846	0.868931	0.005138
82	H	0.250883	0.821537	0.040366
83	H	0.186736	0.884686	0.123312
84	H	0.576061	0.875338	0.198764
85	H	0.493178	0.875388	0.198702
86	C	0.350841	0.742718	0.165225
87	C	0.350827	0.692864	0.165303
88	H	0.376501	0.676221	0.178813
89	H	0.376519	0.759429	0.178691
90	C	0.6616	0.909383	0.175219
91	H	0.638716	0.933282	0.164725
92	C	0.407653	0.909469	0.175071
93	C	0.37915	0.881017	0.154539
94	C	0.346474	0.848074	0.167955
95	H	0.430633	0.933282	0.164584
96	H	0.38249	0.88449	0.129645
97	C	0.931648	0.934555	0.022325
98	C	0.982213	0.933945	0.021783
99	H	0.991825	0.874799	0.053905
100	C	0.784424	0.742921	0.126909
101	C	0.751601	0.768631	0.146924
102	C	0.752151	0.819426	0.147347
103	C	0.784375	0.843692	0.12678
104	C	0.816616	0.819341	0.106272
105	C	0.81723	0.768549	0.106835
106	C	0.718089	0.74234	0.165323
107	C	0.850749	0.74219	0.08849
108	H	0.784336	0.88029	0.126715
109	C	0.784403	0.691744	0.126939
110	C	0.71805	0.692482	0.165335
111	C	0.850745	0.692332	0.088535
112	H	0.692372	0.675836	0.178836
113	H	0.692425	0.759043	0.178803
114	H	0.876416	0.675625	0.075059
115	H	0.876395	0.758855	0.074968
116	C	0.841871	0.844248	0.05081
117	C	0.870382	0.8724	0.030096
118	C	0.903514	0.905066	0.043299
119	C	0.906691	0.909369	0.077808
120	C	0.878564	0.880828	0.098523
121	C	0.846049	0.847546	0.085319
122	H	0.929618	0.933378	0.088144
123	H	0.866807	0.868813	0.005225
124	H	0.817989	0.821205	0.04047
125	H	0.88206	0.88449	0.123395
126	C	0.689994	0.880814	0.154694
127	C	0.722519	0.847721	0.168114
128	H	0.686689	0.884319	0.1298
129	C	0.285374	0.192779	0.376301
130	C	0.318195	0.167169	0.356228
131	C	0.317589	0.116375	0.355657
132	C	0.285306	0.092	0.376119
133	C	0.253056	0.116253	0.396675
134	C	0.252529	0.167052	0.396287
135	H	0.285263	0.055403	0.376038
136	C	0.285368	0.243953	0.376362
137	C	0.318169	0.269685	0.356341
138	C	0.317538	0.320484	0.355885
139	C	0.253049	0.320353	0.396942
140	C	0.25253	0.269561	0.396425
141	H	0.319213	0.32249	0.290078
142	H	0.18738	0.051559	0.37913
143	H	0.319004	0.114518	0.28986
144	C	0.509754	0.035611	0.289754
145	C	0.559392	0.035604	0.289774
146	H	0.575997	0.061253	0.303389
147	H	0.493131	0.061249	0.303367
148	C	0.351711	0.193551	0.337893
149	C	0.351697	0.243411	0.337947
150	H	0.377336	0.260137	0.324455
151	H	0.377357	0.176905	0.324357
152	C	0.664309	0.030983	0.292787
153	C	0.661132	0.026678	0.327296
154	H	0.638205	0.002674	0.337633
155	C	0.342941	0.091538	0.300206
156	C	0.371589	0.063519	0.279501
157	C	0.404817	0.030956	0.292711
158	C	0.407948	0.026615	0.32722
159	C	0.379682	0.05503	0.34793
160	C	0.347074	0.08821	0.334715
161	H	0.430924	0.002664	0.337559
162	H	0.368032	0.067118	0.254629
163	H	0.383153	0.05136	0.372802
164	C	0.483565	0.002107	0.271237
165	C	0.58561	0.002099	0.271274
166	C	0.783402	0.193129	0.376394
167	C	0.816232	0.167419	0.396403
168	C	0.815682	0.116621	0.396827
169	C	0.783452	0.092357	0.376264
170	C	0.751207	0.116706	0.35576
171	C	0.750593	0.167499	0.356321
172	C	0.717077	0.193857	0.337974
173	H	0.783491	0.055759	0.3762
174	C	0.783423	0.244303	0.376423
175	C	0.816286	0.269932	0.396452
176	C	0.815789	0.320729	0.396928
177	C	0.751249	0.320809	0.355912
178	C	0.750607	0.270011	0.3564
179	C	0.717074	0.243716	0.338023
180	H	0.691421	0.260424	0.324533
181	H	0.691435	0.177193	0.324447
182	C	0.725955	0.091797	0.300295
183	C	0.697444	0.063644	0.279582
184	C	0.689259	0.05522	0.348009
185	C	0.721773	0.088501	0.334804
186	H	0.701022	0.067228	0.25471
187	H	0.74984	0.114835	0.289955
188	H	0.685762	0.051559	0.37288
189	H	0.881141	0.051726	0.379282
190	H	0.74962	0.322757	0.290117
191	C	0.28526	0.344724	0.376428
192	H	0.285192	0.38132	0.376441
193	H	0.318488	0.613602	0.213263
194	H	0.187447	0.3852	0.379576
195	C	0.55973	0.468297	0.251562
196	C	0.585301	0.501027	0.231343
197	C	0.63588	0.500421	0.230864
198	C	0.660038	0.468201	0.251538
199	C	0.635841	0.436045	0.272226
200	C	0.585269	0.435524	0.27177
201	C	0.559098	0.53448	0.212786
202	C	0.559059	0.402103	0.290341
203	C	0.508778	0.46834	0.251587
204	C	0.483221	0.501123	0.231401
205	C	0.432642	0.500606	0.230972
206	C	0.408459	0.46839	0.251638
207	C	0.432649	0.43617	0.272287
208	C	0.483221	0.435592	0.271802
209	C	0.509453	0.534541	0.212827
210	H	0.372022	0.468386	0.251653
211	C	0.509421	0.402131	0.290355
212	H	0.492805	0.376518	0.303995
213	H	0.575664	0.376475	0.303975
214	C	0.342427	0.590706	0.202831
215	C	0.371202	0.562647	0.223428
216	C	0.404419	0.530173	0.210101
217	H	0.36772	0.566134	0.248314
218	C	0.407472	0.410856	0.327696
219	C	0.379334	0.382187	0.34832
220	C	0.346988	0.348816	0.335017
221	C	0.342983	0.345578	0.300493
222	C	0.371514	0.373848	0.279871
223	C	0.404487	0.406588	0.293177
224	H	0.382703	0.385816	0.373202
225	H	0.430275	0.434911	0.338104
226	H	0.368075	0.370286	0.25499
227	C	0.661029	0.410849	0.327664
228	C	0.664017	0.406524	0.29315
229	H	0.638148	0.434851	0.338052
230	C	0.664145	0.529952	0.209997
231	C	0.783555	0.345081	0.376416
232	H	0.783629	0.381677	0.376399
233	H	0.696479	0.468158	0.251535
234	C	0.689291	0.382337	0.348313
235	C	0.721766	0.349079	0.335032
236	C	0.725774	0.345783	0.300513
237	C	0.697118	0.373887	0.279871
238	H	0.685908	0.385991	0.373192
239	H	0.700579	0.370296	0.25499
240	H	0.881517	0.385431	0.379493
241	C	0.726335	0.590292	0.202775
242	C	0.697448	0.562322	0.223348
243	H	0.750323	0.613121	0.213227
244	H	0.700916	0.565788	0.248235
245	H	0.318568	0.822211	0.21298
246	C	0.509123	0.967267	0.25105
247	C	0.483565	0.934476	0.230865
248	C	0.432983	0.935007	0.230421
249	C	0.40881	0.967235	0.251086
250	C	0.432997	0.999455	0.271738
251	C	0.50979	0.901015	0.212331
252	H	0.372373	0.967213	0.251121
253	C	0.560074	0.967252	0.251076
254	C	0.585652	0.934426	0.230935
255	C	0.636235	0.934925	0.230546
256	C	0.66039	0.967167	0.251211
257	C	0.636174	0.99943	0.271814
258	C	0.559442	0.90098	0.212374
259	C	0.664486	0.905276	0.20975
260	C	0.342534	0.845018	0.202486
261	C	0.371436	0.873052	0.223009
262	C	0.404725	0.90539	0.209604
263	H	0.367989	0.869655	0.247902
264	H	0.69683	0.967131	0.251273
265	C	0.72642	0.844637	0.202647
266	C	0.697622	0.872792	0.223166
267	H	0.701026	0.869369	0.248061
268	H	0.750295	0.821736	0.213145
269	C	0.06009	0.035044	0.461824
270	C	0.01044	0.035057	0.461849
271	H	0.076702	0.060663	0.448187
272	C	0.219034	0.193329	0.414709
273	C	0.219035	0.243183	0.414777
274	H	0.193372	0.259823	0.428299
275	H	0.193356	0.176617	0.428174
276	H	0.251385	0.32244	0.462739
277	C	0.227347	0.091034	0.451968
278	C	0.198446	0.063002	0.472492
279	C	0.165158	0.03066	0.459091
280	C	0.162223	0.026581	0.424557
281	C	0.190727	0.05503	0.404023
282	C	0.223409	0.087971	0.417437
283	H	0.139237	0.002772	0.414071
284	H	0.201893	0.0664	0.497386
285	H	0.251313	0.113844	0.462459
286	H	0.991761	0.06071	0.448249
287	C	0.849748	0.19371	0.414797
288	C	0.849766	0.243565	0.414829
289	H	0.875458	0.260212	0.428318
290	H	0.875401	0.177005	0.428286
291	C	0.84141	0.091415	0.452128
292	C	0.870204	0.063257	0.472649
293	C	0.903337	0.030769	0.459233
294	C	0.906226	0.026663	0.424702
295	C	0.877836	0.055234	0.404175
296	C	0.845314	0.08833	0.417594
297	H	0.92911	0.002762	0.414208
298	H	0.8668	0.066681	0.497543
299	H	0.817535	0.114316	0.462624
300	H	0.817493	0.322924	0.462712
301	C	0.010147	0.467748	0.501051
302	C	0.010779	0.401554	0.462285
303	C	0.061098	0.467705	0.501076
304	C	0.086655	0.434915	0.480895
305	C	0.137235	0.435428	0.480469
306	C	0.161416	0.467655	0.501127
307	C	0.060427	0.401497	0.462322
308	H	0.077035	0.375883	0.44868
309	C	0.16246	0.410082	0.42507
310	C	0.190828	0.38162	0.404463
311	C	0.223436	0.348533	0.41779
312	C	0.227446	0.34534	0.452312
313	C	0.198678	0.373395	0.472914
314	C	0.165459	0.405875	0.459591
315	H	0.139512	0.433988	0.414645
316	H	0.202161	0.369904	0.497798
317	C	0.010817	0.533946	0.539827
318	C	0.137223	0.499889	0.521767
319	C	0.086654	0.50046	0.521286
320	H	0.197854	0.467662	0.50114
321	C	0.060454	0.533928	0.539832
322	H	0.07707	0.559527	0.553484
323	C	0.162408	0.525196	0.577178
324	C	0.190544	0.553865	0.5978
325	C	0.222884	0.58724	0.584497
326	C	0.226892	0.590474	0.549975
327	C	0.198358	0.562208	0.529353
328	C	0.16539	0.529464	0.542659
329	H	0.250662	0.613563	0.539557
330	H	0.139604	0.501137	0.587586
331	H	0.201799	0.565766	0.504469
332	C	0.982518	0.435011	0.480834
333	C	0.93194	0.43561	0.480358
334	C	0.907781	0.467844	0.501022
335	H	0.992095	0.37598	0.448617
336	C	0.906648	0.410264	0.424964
337	C	0.878152	0.381884	0.404379
338	C	0.845449	0.348914	0.417739
339	C	0.841481	0.345752	0.452263
340	C	0.870371	0.373716	0.472838
341	C	0.903677	0.406082	0.459488
342	H	0.929654	0.434091	0.414522
343	H	0.8669	0.37025	0.497724
344	C	0.931979	0.500011	0.521705
345	C	0.982546	0.500524	0.521251
346	H	0.87134	0.467883	0.501019
347	H	0.992152	0.55957	0.553459
348	C	0.90679	0.525196	0.577146
349	C	0.878532	0.553705	0.597797
350	C	0.846056	0.586966	0.584521
351	C	0.842049	0.590267	0.550002
352	C	0.870701	0.562165	0.529355
353	C	0.903791	0.529521	0.542632
354	H	0.818202	0.613296	0.539606
355	H	0.929671	0.501191	0.587532
356	H	0.867241	0.565759	0.504476
357	C	0.060759	0.966721	0.500531
358	C	0.086317	0.999519	0.480353
359	C	0.136897	0.998987	0.479909
360	C	0.161069	0.966757	0.50057
361	C	0.009807	0.966732	0.500556
362	C	0.136882	0.934537	0.521222
363	C	0.086316	0.933934	0.520717
364	C	0.060125	0.900434	0.539236
365	H	0.197506	0.966778	0.500605
366	C	0.010488	0.900434	0.539251
367	H	0.07675	0.874799	0.552853
368	C	0.218179	0.742504	0.587367
369	C	0.218191	0.692643	0.587421
370	H	0.192537	0.675918	0.573941
371	H	0.19252	0.75915	0.573846
372	C	0.226941	0.844512	0.549686
373	C	0.19829	0.872528	0.528983
374	C	0.165064	0.905091	0.542192
375	C	0.161936	0.90943	0.576702
376	C	0.190202	0.881017	0.597412
377	C	0.222813	0.847842	0.584195
378	H	0.138957	0.933382	0.587043
379	H	0.201845	0.868931	0.504108
380	H	0.250879	0.821533	0.539339
381	C	0.98217	0.999561	0.480415
382	C	0.931588	0.999059	0.480029
383	C	0.907433	0.966821	0.500693
384	C	0.931648	0.934555	0.521296
385	C	0.982213	0.933945	0.520753
386	H	0.870996	0.96686	0.500759
387	H	0.991825	0.874799	0.552875
388	C	0.850745	0.74219	0.58746
389	C	0.850742	0.692329	0.587505
390	H	0.876409	0.675622	0.57403
391	H	0.876391	0.758851	0.573936
392	C	0.841871	0.844248	0.549779
393	C	0.870382	0.8724	0.529066
394	C	0.903514	0.905066	0.542271
395	C	0.906691	0.909369	0.576778
396	C	0.87856	0.880828	0.597493
397	C	0.846046	0.847546	0.584288
398	H	0.929615	0.933374	0.587114
399	H	0.866804	0.868813	0.504194
400	H	0.817986	0.821209	0.53944
401	H	0.319207	0.32249	0.789049
402	H	0.319001	0.114516	0.788828
403	C	0.509751	0.035608	0.788725
404	C	0.559389	0.035601	0.788747
405	C	0.664305	0.03098	0.791758
406	C	0.342938	0.091536	0.799175
407	C	0.371585	0.063517	0.778472
408	C	0.404813	0.030954	0.791681
409	H	0.368029	0.067116	0.753598
410	C	0.483562	0.002104	0.770208
411	C	0.585606	0.002095	0.770245
412	C	0.725948	0.091796	0.799268
413	C	0.697441	0.063642	0.778555
414	H	0.701019	0.067227	0.753683
415	H	0.749837	0.114834	0.788929
416	H	0.749617	0.322755	0.789091
417	C	0.252343	0.615567	0.605361
418	C	0.284605	0.591326	0.625915
419	C	0.316806	0.615695	0.646439
420	H	0.28467	0.554728	0.62593
421	H	0.318485	0.613599	0.712236
422	H	0.187177	0.550236	0.622684
423	C	0.251712	0.666366	0.60582
424	C	0.317335	0.666487	0.645916
425	C	0.559726	0.468293	0.750533
426	C	0.585301	0.501023	0.730313
427	C	0.635876	0.500417	0.729835
428	C	0.660038	0.468197	0.750508
429	C	0.635837	0.436041	0.771199
430	C	0.585269	0.435524	0.77074
431	C	0.559098	0.534477	0.711757
432	C	0.559055	0.402099	0.789311
433	C	0.508775	0.468336	0.750558
434	C	0.483217	0.501123	0.730372
435	C	0.432639	0.500603	0.729943
436	C	0.408455	0.46839	0.750612
437	C	0.432649	0.436166	0.771258
438	C	0.483217	0.435589	0.770772
439	C	0.509449	0.534537	0.711799
440	H	0.372018	0.468386	0.750624
441	C	0.509417	0.402128	0.789326
442	H	0.49284	0.560162	0.698162
443	H	0.575724	0.560065	0.698103
444	C	0.407408	0.52597	0.674552
445	C	0.379036	0.554436	0.653947
446	C	0.346423	0.587511	0.667282
447	C	0.342423	0.590702	0.701803
448	C	0.371198	0.562647	0.722401
449	C	0.404419	0.53017	0.709073
450	H	0.382412	0.55086	0.629063
451	H	0.430356	0.502068	0.664122
452	H	0.36772	0.566134	0.747285
453	C	0.342978	0.345576	0.799464
454	C	0.371511	0.373844	0.778842
455	C	0.404483	0.406584	0.792148
456	H	0.368071	0.370286	0.753958
457	C	0.664017	0.40652	0.792121
458	C	0.661171	0.525777	0.674444
459	C	0.664142	0.529952	0.708967
460	H	0.638166	0.501947	0.663996
461	C	0.751533	0.666113	0.645936
462	C	0.75203	0.615317	0.646414
463	C	0.784268	0.590966	0.625905
464	C	0.816573	0.615235	0.605401
465	C	0.817212	0.666034	0.605887
466	H	0.784194	0.554368	0.62589
467	H	0.696475	0.468158	0.750506
468	C	0.72577	0.345781	0.799486
469	C	0.697114	0.373883	0.778842
470	H	0.700575	0.370296	0.753963
471	H	0.881915	0.55005	0.622679
472	C	0.689663	0.554161	0.653861
473	C	0.722363	0.587133	0.66722
474	C	0.726331	0.590292	0.701744
475	C	0.697441	0.562322	0.722317
476	H	0.750316	0.613118	0.712196
477	H	0.686302	0.550617	0.628972
478	H	0.700912	0.565784	0.747206
479	C	0.284502	0.74327	0.625787
480	C	0.251688	0.768884	0.60571
481	C	0.252305	0.819676	0.605131
482	C	0.284574	0.844048	0.625606
483	C	0.31681	0.819793	0.646169
484	C	0.317341	0.768994	0.645779
485	H	0.284618	0.880647	0.625525
486	C	0.284506	0.692097	0.625846
487	H	0.318562	0.822211	0.711953
488	H	0.186733	0.884686	0.622284
489	C	0.509119	0.967263	0.75002
490	C	0.483562	0.934473	0.729837
491	C	0.43298	0.935004	0.729393
492	C	0.408807	0.967231	0.750057
493	C	0.432994	0.999451	0.770709
494	C	0.509786	0.901012	0.711303
495	H	0.37237	0.96721	0.750091
496	C	0.56007	0.967249	0.750047
497	C	0.585649	0.934423	0.729906
498	C	0.636231	0.934925	0.729518
499	C	0.66039	0.967163	0.750182
500	C	0.636171	0.999426	0.770787
501	C	0.559438	0.900976	0.711345
502	H	0.576058	0.875338	0.697735
503	H	0.493178	0.875384	0.697674
504	C	0.350836	0.742718	0.664198
505	C	0.350822	0.692864	0.664276
506	H	0.376494	0.676221	0.677788
507	H	0.376516	0.759425	0.677665
508	C	0.664482	0.905272	0.70872
509	C	0.661597	0.90938	0.674188
510	H	0.638712	0.933282	0.663697
511	C	0.342529	0.845015	0.701457
512	C	0.371433	0.873049	0.721981
513	C	0.404721	0.905387	0.708575
514	C	0.407649	0.909465	0.674044
515	C	0.379146	0.881017	0.653512
516	C	0.346469	0.84807	0.666928
517	H	0.430633	0.933278	0.663555
518	H	0.367986	0.869655	0.746875
519	H	0.382486	0.88449	0.628616
520	H	0.696827	0.967128	0.750244
521	C	0.784417	0.742917	0.625878
522	C	0.751594	0.768627	0.645892
523	C	0.752148	0.819426	0.646316
524	C	0.784371	0.843692	0.625748
525	C	0.816612	0.819341	0.605241
526	C	0.817226	0.768549	0.605803
527	C	0.718085	0.742336	0.664291
528	H	0.784332	0.880287	0.625684
529	C	0.784399	0.691744	0.625908
530	C	0.718046	0.692482	0.664303
531	H	0.692365	0.675836	0.677805
532	H	0.692422	0.759043	0.677771
533	H	0.882057	0.884486	0.622365
534	C	0.726416	0.844633	0.701617
535	C	0.697622	0.872792	0.722136
536	C	0.68999	0.880811	0.653664
537	C	0.722515	0.847717	0.667083
538	H	0.701022	0.869366	0.747029
539	H	0.750291	0.821736	0.712113
540	H	0.686685	0.884319	0.628771
541	C	0.060089	0.035043	0.960795
542	C	0.01044	0.035056	0.960819
543	H	0.076702	0.060661	0.947158
544	C	0.285369	0.192778	0.875269
545	C	0.31819	0.167168	0.855196
546	C	0.317585	0.116373	0.854625
547	C	0.285302	0.091998	0.875087
548	C	0.253051	0.116251	0.895643
549	C	0.252524	0.16705	0.895256
550	C	0.219028	0.193327	0.913677
551	H	0.285259	0.055401	0.875009
552	C	0.285363	0.243952	0.87533
553	C	0.318163	0.269684	0.855312
554	C	0.317533	0.320483	0.854855
555	C	0.253044	0.320351	0.895913
556	C	0.252525	0.269559	0.895395
557	C	0.21903	0.243181	0.913746
558	H	0.193368	0.259821	0.927267
559	H	0.193351	0.176616	0.927142
560	H	0.251381	0.322437	0.96171
561	C	0.227345	0.091033	0.950936
562	C	0.198444	0.063001	0.971463
563	C	0.165157	0.030658	0.958059
564	C	0.162222	0.026578	0.923528
565	C	0.190724	0.055027	0.902994
566	C	0.223405	0.087969	0.916408
567	H	0.139236	0.002768	0.913041
568	H	0.201892	0.066401	0.996356
569	H	0.25131	0.113844	0.961428
570	H	0.187377	0.051556	0.878098
571	H	0.575994	0.06125	0.802359
572	H	0.493128	0.061246	0.802337
573	C	0.351706	0.19355	0.836861
574	C	0.351691	0.24341	0.836915
575	H	0.377332	0.260136	0.823423
576	H	0.37735	0.176904	0.823325
577	C	0.661128	0.026675	0.826267
578	H	0.638201	0.00267	0.836604
579	C	0.407941	0.026614	0.826191
580	C	0.379678	0.055029	0.846899
581	C	0.34707	0.088209	0.833684
582	H	0.430921	0.002662	0.83653
583	H	0.38315	0.051359	0.871773
584	H	0.991761	0.060709	0.947219
585	C	0.783398	0.193127	0.875367
586	C	0.816229	0.167417	0.895376
587	C	0.815679	0.116619	0.895798
588	C	0.783448	0.092355	0.875237
589	C	0.751203	0.116704	0.85473
590	C	0.750586	0.167498	0.855295
591	C	0.849741	0.193708	0.91377
592	C	0.717074	0.193856	0.836947
593	H	0.783487	0.055758	0.875171
594	C	0.783416	0.244302	0.875397
595	C	0.816282	0.269931	0.895425
596	C	0.815785	0.320727	0.895901
597	C	0.751246	0.320807	0.854885
598	C	0.750603	0.27001	0.855376
599	C	0.849759	0.243563	0.913802
600	C	0.71707	0.243715	0.836996
601	H	0.875451	0.26021	0.927292
602	H	0.875398	0.177003	0.92726
603	H	0.691413	0.260423	0.823506
604	H	0.691428	0.177192	0.823421
605	C	0.689255	0.055217	0.846982
606	C	0.72177	0.088499	0.833777
607	H	0.685759	0.051556	0.871854
608	C	0.841406	0.091412	0.951101
609	C	0.870201	0.063256	0.97162
610	C	0.903337	0.030768	0.958204
611	C	0.906222	0.026663	0.923673
612	C	0.877833	0.055233	0.903149
613	C	0.845311	0.088328	0.916567
614	H	0.92911	0.002763	0.913179
615	H	0.8668	0.066679	0.996514
616	H	0.817532	0.114313	0.961597
617	H	0.881137	0.051726	0.878252
618	H	0.817489	0.322924	0.961685
619	C	0.285256	0.344722	0.875399
620	H	0.285188	0.38132	0.875409
621	C	0.010779	0.40155	0.961256
622	C	0.086655	0.434915	0.979866
623	C	0.137234	0.435428	0.979439
624	C	0.060427	0.401497	0.961293
625	H	0.077035	0.37588	0.947651
626	C	0.162458	0.410082	0.924041
627	C	0.190825	0.38162	0.903433
628	C	0.223432	0.348531	0.916758
629	C	0.227443	0.345338	0.951282
630	C	0.198676	0.373395	0.971885
631	C	0.165458	0.405875	0.958562
632	H	0.187444	0.3852	0.878547
633	H	0.139511	0.433988	0.913615
634	H	0.20216	0.369901	0.996769
635	H	0.492801	0.376518	0.802965
636	H	0.57566	0.376475	0.802946
637	C	0.407468	0.410852	0.826667
638	C	0.379331	0.382183	0.847291
639	C	0.346984	0.348815	0.833986
640	H	0.382699	0.385813	0.872173
641	H	0.430271	0.434908	0.837075
642	C	0.661025	0.410845	0.826635
643	H	0.638144	0.434847	0.837023
644	H	0.87134	0.467883	0.999993
645	C	0.783551	0.345079	0.875389
646	H	0.783626	0.381677	0.875372
647	C	0.982518	0.435011	0.979805
648	C	0.93194	0.43561	0.979331
649	C	0.907781	0.467844	0.999993
650	H	0.992091	0.375976	0.94759
651	C	0.689284	0.382337	0.847286
652	C	0.721763	0.349078	0.834005
653	H	0.685904	0.385991	0.872165
654	C	0.906648	0.41026	0.923938
655	C	0.878149	0.38188	0.903352
656	C	0.845449	0.348913	0.916712
657	C	0.841477	0.345751	0.951236
658	C	0.870368	0.373716	0.971809
659	C	0.903677	0.406082	0.958461
660	H	0.881514	0.385428	0.878463
661	H	0.929654	0.434088	0.913493
662	H	0.866896	0.37025	0.996698
663	H	0.197506	0.966778	0.999576
664	C	0.060759	0.966721	0.999502
665	C	0.086316	0.999519	0.979324
666	C	0.136896	0.998987	0.97888
667	C	0.161068	0.966757	0.999541
668	C	0.009807	0.966732	0.999529
669	H	0.870996	0.96686	0.99973
670	C	0.98217	0.999558	0.979385
671	C	0.931588	0.999059	0.979
672	C	0.907433	0.966821	0.999666
673	C	0.252347	0.615567	0.351744
674	C	0.28461	0.591326	0.372297
675	C	0.316811	0.615695	0.392821
676	H	0.284674	0.554728	0.37231
677	C	0.010817	0.533946	0.286209
678	C	0.137223	0.499889	0.26815
679	C	0.086654	0.50046	0.26767
680	H	0.197854	0.467662	0.247524
681	C	0.060454	0.533928	0.286216
682	H	0.07707	0.559527	0.299866
683	C	0.162409	0.525196	0.32356
684	C	0.190547	0.553869	0.344183
685	C	0.222887	0.587244	0.330879
686	C	0.226894	0.590474	0.296357
687	C	0.198359	0.562208	0.275735
688	C	0.16539	0.529468	0.289042
689	H	0.250664	0.61356	0.285939
690	H	0.18718	0.550236	0.369065
691	H	0.139605	0.501141	0.333968
692	H	0.2018	0.565766	0.250852
693	C	0.251717	0.666366	0.352202
694	C	0.31734	0.666487	0.392298
695	C	0.010147	0.467748	0.247435
696	C	0.061098	0.467705	0.24746
697	C	0.161416	0.467655	0.247511
698	H	0.492844	0.560162	0.444547
699	H	0.575728	0.560065	0.444487
700	C	0.407412	0.52597	0.420934
701	C	0.379039	0.554436	0.40033
702	C	0.346427	0.587515	0.413664
703	H	0.382415	0.55086	0.375445
704	H	0.43036	0.502071	0.410505
705	C	0.661171	0.525781	0.420827
706	H	0.638169	0.50195	0.410382
707	C	0.751537	0.666116	0.392322
708	C	0.752037	0.615321	0.392799
709	C	0.784272	0.590966	0.37229
710	C	0.816577	0.615239	0.351785
711	C	0.817216	0.666038	0.352273
712	H	0.784201	0.554368	0.372275
713	C	0.931979	0.500011	0.268089
714	C	0.982546	0.500524	0.267635
715	H	0.992152	0.559573	0.299843
716	C	0.90679	0.525196	0.32353
717	C	0.878535	0.553708	0.344183
718	C	0.84606	0.586969	0.330905
719	C	0.842049	0.590271	0.296387
720	C	0.870701	0.562165	0.27574
721	C	0.903795	0.529521	0.289016
722	H	0.818206	0.613299	0.285991
723	H	0.881918	0.55005	0.369062
724	H	0.929671	0.501191	0.333916
725	H	0.867244	0.565759	0.250861
726	C	0.689667	0.554165	0.400245
727	C	0.722366	0.587133	0.413605
728	H	0.686306	0.550621	0.375357
729	C	0.136882	0.934537	0.267605
730	C	0.086316	0.933934	0.2671
731	C	0.060125	0.900434	0.285621
732	C	0.010488	0.900434	0.285634
733	H	0.07675	0.874803	0.299237
734	C	0.284507	0.74327	0.372168
735	C	0.251692	0.768884	0.352091
736	C	0.252309	0.819679	0.351513
737	C	0.284578	0.844052	0.371988
738	C	0.316815	0.819797	0.392552
739	C	0.317346	0.768998	0.39216
740	C	0.218184	0.742504	0.333748
741	H	0.284623	0.880647	0.371909
742	C	0.284511	0.692097	0.372228
743	C	0.218196	0.692643	0.333803
744	H	0.192542	0.675921	0.320323
745	H	0.192525	0.75915	0.320227
746	C	0.226944	0.844512	0.296068
747	C	0.198292	0.872528	0.275365
748	C	0.165064	0.905091	0.288577
749	C	0.161937	0.90943	0.323086
750	C	0.190204	0.881017	0.343794
751	C	0.222817	0.847842	0.330578
752	H	0.138958	0.933378	0.333428
753	H	0.201846	0.868931	0.250493
754	H	0.250883	0.821537	0.285721
755	H	0.186736	0.884686	0.368667
756	H	0.576061	0.875338	0.444119
757	H	0.493178	0.875388	0.444057
758	C	0.350841	0.742718	0.41058
759	C	0.350827	0.692864	0.410658
760	H	0.376501	0.676221	0.424168
761	H	0.376519	0.759429	0.424046
762	C	0.6616	0.909383	0.420574
763	H	0.638716	0.933282	0.41008
764	C	0.407653	0.909469	0.420426
765	C	0.37915	0.881017	0.399894
766	C	0.346474	0.848074	0.41331
767	H	0.430633	0.933282	0.409939
768	H	0.38249	0.88449	0.375
769	C	0.931648	0.934555	0.26768
770	C	0.982213	0.933945	0.267138
771	H	0.991825	0.874799	0.29926
772	C	0.784424	0.742921	0.372264
773	C	0.751601	0.768631	0.392279
774	C	0.752151	0.819426	0.392702
775	C	0.784375	0.843692	0.372135
776	C	0.816616	0.819341	0.351627
777	C	0.81723	0.768549	0.35219
778	C	0.718089	0.74234	0.410678
779	C	0.850749	0.74219	0.333845
780	H	0.784336	0.88029	0.37207
781	C	0.784403	0.691744	0.372294
782	C	0.71805	0.692482	0.41069
783	C	0.850745	0.692332	0.33389
784	H	0.692372	0.675836	0.424191
785	H	0.692425	0.759043	0.424158
786	H	0.876416	0.675625	0.320414
787	H	0.876395	0.758855	0.320323
788	C	0.841871	0.844248	0.296165
789	C	0.870382	0.8724	0.275451
790	C	0.903514	0.905066	0.288654
791	C	0.906691	0.909369	0.323163
792	C	0.878564	0.880828	0.343878
793	C	0.846049	0.847546	0.330674
794	H	0.929618	0.933378	0.333499
795	H	0.866807	0.868813	0.25058
796	H	0.817989	0.821205	0.285825
797	H	0.88206	0.88449	0.36875
798	C	0.689994	0.880814	0.400049
799	C	0.722519	0.847721	0.413469
800	H	0.686689	0.884319	0.375155
801	C	0.285374	0.192779	0.621656
802	C	0.318195	0.167169	0.601583
803	C	0.317589	0.116375	0.601012
804	C	0.285306	0.092	0.621474
805	C	0.253056	0.116253	0.64203
806	C	0.252529	0.167052	0.641642
807	H	0.285263	0.055403	0.621393
808	C	0.285368	0.243953	0.621717
809	C	0.318169	0.269685	0.601696
810	C	0.317538	0.320484	0.60124
811	C	0.253049	0.320353	0.642297
812	C	0.25253	0.269561	0.64178
813	H	0.319213	0.32249	0.535433
814	H	0.18738	0.051559	0.624485
815	H	0.319004	0.114518	0.535215
816	C	0.509754	0.035611	0.535109
817	C	0.559392	0.035604	0.535129
818	H	0.575997	0.061253	0.548744
819	H	0.493131	0.061249	0.548722
820	C	0.351711	0.193551	0.583248
821	C	0.351697	0.243411	0.583302
822	H	0.377336	0.260137	0.56981
823	H	0.377357	0.176905	0.569712
824	C	0.664309	0.030983	0.538142
825	C	0.661132	0.026678	0.572651
826	H	0.638205	0.002674	0.582988
827	C	0.342941	0.091538	0.545561
828	C	0.371589	0.063519	0.524856
829	C	0.404817	0.030956	0.538066
830	C	0.407948	0.026615	0.572575
831	C	0.379682	0.05503	0.593285
832	C	0.347074	0.08821	0.58007
833	H	0.430924	0.002664	0.582914
834	H	0.368032	0.067118	0.499984
835	H	0.383153	0.05136	0.618157
836	C	0.483565	0.002107	0.516592
837	C	0.58561	0.002099	0.516629
838	C	0.783402	0.193129	0.621749
839	C	0.816232	0.167419	0.641758
840	C	0.815682	0.116621	0.642182
841	C	0.783452	0.092357	0.621619
842	C	0.751207	0.116706	0.601115
843	C	0.750593	0.167499	0.601676
844	C	0.717077	0.193857	0.583329
845	H	0.783491	0.055759	0.621555
846	C	0.783423	0.244303	0.621778
847	C	0.816286	0.269932	0.641807
848	C	0.815789	0.320729	0.642283
849	C	0.751249	0.320809	0.601267
850	C	0.750607	0.270011	0.601755
851	C	0.717074	0.243716	0.583378
852	H	0.691421	0.260424	0.569888
853	H	0.691435	0.177193	0.569802
854	C	0.725955	0.091797	0.54565
855	C	0.697444	0.063644	0.524937
856	C	0.689259	0.05522	0.593364
857	C	0.721773	0.088501	0.580159
858	H	0.701022	0.067228	0.500065
859	H	0.74984	0.114835	0.53531
860	H	0.685762	0.051559	0.618235
861	H	0.881141	0.051726	0.624637
862	H	0.74962	0.322757	0.535472
863	C	0.28526	0.344724	0.621783
864	H	0.285192	0.38132	0.621796
865	H	0.318488	0.613602	0.458618
866	H	0.187447	0.3852	0.624931
867	C	0.55973	0.468297	0.496917
868	C	0.585301	0.501027	0.476698
869	C	0.63588	0.500421	0.476219
870	C	0.660038	0.468201	0.496893
871	C	0.635841	0.436045	0.517581
872	C	0.585269	0.435524	0.517125
873	C	0.559098	0.53448	0.458141
874	C	0.559059	0.402103	0.535696
875	C	0.508778	0.46834	0.496942
876	C	0.483221	0.501123	0.476756
877	C	0.432642	0.500606	0.476327
878	C	0.408459	0.46839	0.496993
879	C	0.432649	0.43617	0.517642
880	C	0.483221	0.435592	0.517157
881	C	0.509453	0.534541	0.458182
882	H	0.372022	0.468386	0.497008
883	C	0.509421	0.402131	0.53571
884	H	0.492805	0.376518	0.54935
885	H	0.575664	0.376475	0.54933
886	C	0.342427	0.590706	0.448186
887	C	0.371202	0.562647	0.468783
888	C	0.404419	0.530173	0.455456
889	H	0.36772	0.566134	0.493669
890	C	0.407472	0.410856	0.573051
891	C	0.379334	0.382187	0.593675
892	C	0.346988	0.348816	0.580372
893	C	0.342983	0.345578	0.545848
894	C	0.371514	0.373848	0.525226
895	C	0.404487	0.406588	0.538532
896	H	0.382703	0.385816	0.618557
897	H	0.430275	0.434911	0.583459
898	H	0.368075	0.370286	0.500345
899	C	0.661029	0.410849	0.573019
900	C	0.664017	0.406524	0.538505
901	H	0.638148	0.434851	0.583407
902	C	0.664145	0.529952	0.455352
903	C	0.783555	0.345081	0.621771
904	H	0.783629	0.381677	0.621754
905	H	0.696479	0.468158	0.49689
906	C	0.689291	0.382337	0.593668
907	C	0.721766	0.349079	0.580387
908	C	0.725774	0.345783	0.545868
909	C	0.697118	0.373887	0.525226
910	H	0.685908	0.385991	0.618547
911	H	0.700579	0.370296	0.500345
912	H	0.881517	0.385431	0.624848
913	C	0.726335	0.590292	0.44813
914	C	0.697448	0.562322	0.468703
915	H	0.750323	0.613121	0.458582
916	H	0.700916	0.565788	0.49359
917	H	0.318568	0.822211	0.458335
918	C	0.509123	0.967267	0.496405
919	C	0.483565	0.934476	0.47622
920	C	0.432983	0.935007	0.475776
921	C	0.40881	0.967235	0.496441
922	C	0.432997	0.999455	0.517093
923	C	0.50979	0.901015	0.457686
924	H	0.372373	0.967213	0.496476
925	C	0.560074	0.967252	0.496431
926	C	0.585652	0.934426	0.47629
927	C	0.636235	0.934925	0.475901
928	C	0.66039	0.967167	0.496566
929	C	0.636174	0.99943	0.517169
930	C	0.559442	0.90098	0.457729
931	C	0.664486	0.905276	0.455105
932	C	0.342534	0.845018	0.447841
933	C	0.371436	0.873052	0.468364
934	C	0.404725	0.90539	0.454959
935	H	0.367989	0.869655	0.493257
936	H	0.69683	0.967131	0.496628
937	C	0.72642	0.844637	0.448002
938	C	0.697622	0.872792	0.468521
939	H	0.701026	0.869369	0.493416
940	H	0.750295	0.821736	0.4585
941	C	0.06009	0.035044	0.707179
942	C	0.01044	0.035057	0.707204
943	H	0.076702	0.060663	0.693542
944	C	0.219034	0.193329	0.660064
945	C	0.219035	0.243183	0.660132
946	H	0.193372	0.259823	0.673654
947	H	0.193356	0.176617	0.673529
948	H	0.251385	0.32244	0.708094
949	C	0.227347	0.091034	0.697323
950	C	0.198446	0.063002	0.717847
951	C	0.165158	0.03066	0.704446
952	C	0.162223	0.026581	0.669912
953	C	0.190727	0.05503	0.649378
954	C	0.223409	0.087971	0.662792
955	H	0.139237	0.002772	0.659426
956	H	0.201893	0.0664	0.742741
957	H	0.251313	0.113844	0.707814
958	H	0.991761	0.06071	0.693604
959	C	0.849748	0.19371	0.660152
960	C	0.849766	0.243565	0.660184
961	H	0.875458	0.260212	0.673673
962	H	0.875401	0.177005	0.673641
963	C	0.84141	0.091415	0.697483
964	C	0.870204	0.063257	0.718004
965	C	0.903337	0.030769	0.704588
966	C	0.906226	0.026663	0.670057
967	C	0.877836	0.055234	0.64953
968	C	0.845314	0.08833	0.662949
969	H	0.92911	0.002762	0.659563
970	H	0.8668	0.066681	0.742898
971	H	0.817535	0.114316	0.707979
972	H	0.817493	0.322924	0.708067
973	C	0.010147	0.467748	0.746406
974	C	0.010779	0.401554	0.70764
975	C	0.061098	0.467705	0.746431
976	C	0.086655	0.434915	0.72625
977	C	0.137235	0.435428	0.725824
978	C	0.161416	0.467655	0.746482
979	C	0.060427	0.401497	0.707677
980	H	0.077035	0.375883	0.694035
981	C	0.16246	0.410082	0.670425
982	C	0.190828	0.38162	0.649818
983	C	0.223436	0.348533	0.663145
984	C	0.227446	0.34534	0.697667
985	C	0.198678	0.373395	0.718269
986	C	0.165459	0.405875	0.704946
987	H	0.139512	0.433988	0.66
988	H	0.202161	0.369904	0.743153
989	C	0.010817	0.533946	0.785182
990	C	0.137223	0.499889	0.767122
991	C	0.086654	0.50046	0.766641
992	H	0.197854	0.467662	0.746495
993	C	0.060454	0.533928	0.785187
994	H	0.07707	0.559527	0.798839
995	C	0.162408	0.525196	0.822533
996	C	0.190544	0.553865	0.843155
997	C	0.222884	0.58724	0.829852
998	C	0.226892	0.590474	0.79533
999	C	0.198358	0.562208	0.774708
1000	C	0.16539	0.529464	0.788014
1001	H	0.250662	0.613563	0.784912
1002	H	0.139604	0.501137	0.832941
1003	H	0.201799	0.565766	0.749824
1004	C	0.982518	0.435011	0.726189
1005	C	0.93194	0.43561	0.725713
1006	C	0.907781	0.467844	0.746377
1007	H	0.992095	0.37598	0.693972
1008	C	0.906648	0.410264	0.670319
1009	C	0.878152	0.381884	0.649734
1010	C	0.845449	0.348914	0.663094
1011	C	0.841481	0.345752	0.697618
1012	C	0.870371	0.373716	0.718193
1013	C	0.903677	0.406082	0.704843
1014	H	0.929654	0.434091	0.659877
1015	H	0.8669	0.37025	0.743079
1016	C	0.931979	0.500011	0.76706
1017	C	0.982546	0.500524	0.766606
1018	H	0.87134	0.467883	0.746374
1019	H	0.992152	0.55957	0.798814
1020	C	0.90679	0.525196	0.822501
1021	C	0.878532	0.553705	0.843152
1022	C	0.846056	0.586966	0.829876
1023	C	0.842049	0.590267	0.795357
1024	C	0.870701	0.562165	0.77471
1025	C	0.903791	0.529521	0.787987
1026	H	0.818202	0.613296	0.784961
1027	H	0.929671	0.501191	0.832887
1028	H	0.867241	0.565759	0.749831
1029	C	0.060759	0.966721	0.745886
1030	C	0.086317	0.999519	0.725708
1031	C	0.136897	0.998987	0.725264
1032	C	0.161069	0.966757	0.745925
1033	C	0.009807	0.966732	0.745911
1034	C	0.136882	0.934537	0.766577
1035	C	0.086316	0.933934	0.766072
1036	C	0.060125	0.900434	0.784591
1037	H	0.197506	0.966778	0.74596
1038	C	0.010488	0.900434	0.784606
1039	H	0.07675	0.874799	0.798208
1040	C	0.218179	0.742504	0.832722
1041	C	0.218191	0.692643	0.832776
1042	H	0.192537	0.675918	0.819296
1043	H	0.19252	0.75915	0.819201
1044	C	0.226941	0.844512	0.795041
1045	C	0.19829	0.872528	0.774338
1046	C	0.165064	0.905091	0.787547
1047	C	0.161936	0.90943	0.822057
1048	C	0.190202	0.881017	0.842767
1049	C	0.222813	0.847842	0.82955
1050	H	0.138957	0.933382	0.832398
1051	H	0.201845	0.868931	0.749463
1052	H	0.250879	0.821533	0.784694
1053	C	0.98217	0.999561	0.72577
1054	C	0.931588	0.999059	0.725384
1055	C	0.907433	0.966821	0.746048
1056	C	0.931648	0.934555	0.766651
1057	C	0.982213	0.933945	0.766108
1058	H	0.870996	0.96686	0.746114
1059	H	0.991825	0.874799	0.79823
1060	C	0.850745	0.74219	0.832815
1061	C	0.850742	0.692329	0.83286
1062	H	0.876409	0.675622	0.819385
1063	H	0.876391	0.758851	0.819291
1064	C	0.841871	0.844248	0.795134
1065	C	0.870382	0.8724	0.774421
1066	C	0.903514	0.905066	0.787626
1067	C	0.906691	0.909369	0.822133
1068	C	0.87856	0.880828	0.842848
1069	C	0.846046	0.847546	0.829643
1070	H	0.929615	0.933374	0.832469
1071	H	0.866804	0.868813	0.749549
1072	H	0.817986	0.821209	0.784795
1073	H	0.319207	0.32249	0.0344038
1074	H	0.319001	0.114516	0.0341828
1075	C	0.509751	0.035608	0.0340798
1076	C	0.559389	0.035601	0.0341018
1077	C	0.664305	0.03098	0.0371128
1078	C	0.342938	0.091536	0.0445298
1079	C	0.371585	0.063517	0.0238268
1080	C	0.404813	0.030954	0.0370358
1081	H	0.368029	0.067116	0.998953
1082	C	0.483562	0.002104	0.0155628
1083	C	0.585606	0.002095	0.0155998
1084	C	0.725948	0.091796	0.0446228
1085	C	0.697441	0.063642	0.0239098
1086	H	0.701019	0.067227	0.999038
1087	H	0.749837	0.114834	0.0342838
1088	H	0.749617	0.322755	0.0344458
1089	C	0.252343	0.615567	0.850716
1090	C	0.284605	0.591326	0.87127
1091	C	0.316806	0.615695	0.891794
1092	H	0.28467	0.554728	0.871285
1093	H	0.318485	0.613599	0.957591
1094	H	0.187177	0.550236	0.868039
1095	C	0.251712	0.666366	0.851175
1096	C	0.317335	0.666487	0.891271
1097	C	0.559726	0.468293	0.995888
1098	C	0.585301	0.501023	0.975668
1099	C	0.635876	0.500417	0.97519
1100	C	0.660038	0.468197	0.995863
1101	C	0.635837	0.436041	0.0165538
1102	C	0.585269	0.435524	0.0160948
1103	C	0.559098	0.534477	0.957112
1104	C	0.559055	0.402099	0.0346658
1105	C	0.508775	0.468336	0.995913
1106	C	0.483217	0.501123	0.975727
1107	C	0.432639	0.500603	0.975298
1108	C	0.408455	0.46839	0.995967
1109	C	0.432649	0.436166	0.0166128
1110	C	0.483217	0.435589	0.0161268
1111	C	0.509449	0.534537	0.957154
1112	H	0.372018	0.468386	0.995979
1113	C	0.509417	0.402128	0.0346808
1114	H	0.49284	0.560162	0.943517
1115	H	0.575724	0.560065	0.943458
1116	C	0.407408	0.52597	0.919907
1117	C	0.379036	0.554436	0.899302
1118	C	0.346423	0.587511	0.912637
1119	C	0.342423	0.590702	0.947158
1120	C	0.371198	0.562647	0.967756
1121	C	0.404419	0.53017	0.954428
1122	H	0.382412	0.55086	0.874418
1123	H	0.430356	0.502068	0.909477
1124	H	0.36772	0.566134	0.99264
1125	C	0.342978	0.345576	0.0448188
1126	C	0.371511	0.373844	0.0241968
1127	C	0.404483	0.406584	0.0375028
1128	H	0.368071	0.370286	0.999313
1129	C	0.664017	0.40652	0.0374758
1130	C	0.661171	0.525777	0.919799
1131	C	0.664142	0.529952	0.954322
1132	H	0.638166	0.501947	0.909351
1133	C	0.751533	0.666113	0.891291
1134	C	0.75203	0.615317	0.891769
1135	C	0.784268	0.590966	0.87126
1136	C	0.816573	0.615235	0.850756
1137	C	0.817212	0.666034	0.851242
1138	H	0.784194	0.554368	0.871245
1139	H	0.696475	0.468158	0.995861
1140	C	0.72577	0.345781	0.0448408
1141	C	0.697114	0.373883	0.0241968
1142	H	0.700575	0.370296	0.999318
1143	H	0.881915	0.55005	0.868034
1144	C	0.689663	0.554161	0.899216
1145	C	0.722363	0.587133	0.912575
1146	C	0.726331	0.590292	0.947099
1147	C	0.697441	0.562322	0.967672
1148	H	0.750316	0.613118	0.957551
1149	H	0.686302	0.550617	0.874327
1150	H	0.700912	0.565784	0.992561
1151	C	0.284502	0.74327	0.871142
1152	C	0.251688	0.768884	0.851065
1153	C	0.252305	0.819676	0.850486
1154	C	0.284574	0.844048	0.870961
1155	C	0.31681	0.819793	0.891524
1156	C	0.317341	0.768994	0.891134
1157	H	0.284618	0.880647	0.87088
1158	C	0.284506	0.692097	0.871201
1159	H	0.318562	0.822211	0.957308
1160	H	0.186733	0.884686	0.867639
1161	C	0.509119	0.967263	0.995375
1162	C	0.483562	0.934473	0.975192
1163	C	0.43298	0.935004	0.974748
1164	C	0.408807	0.967231	0.995412
1165	C	0.432994	0.999451	0.0160638
1166	C	0.509786	0.901012	0.956658
1167	H	0.37237	0.96721	0.995446
1168	C	0.56007	0.967249	0.995402
1169	C	0.585649	0.934423	0.975261
1170	C	0.636231	0.934925	0.974873
1171	C	0.66039	0.967163	0.995537
1172	C	0.636171	0.999426	0.0161418
1173	C	0.559438	0.900976	0.9567
1174	H	0.576058	0.875338	0.94309
1175	H	0.493178	0.875384	0.943029
1176	C	0.350836	0.742718	0.909553
1177	C	0.350822	0.692864	0.909631
1178	H	0.376494	0.676221	0.923143
1179	H	0.376516	0.759425	0.92302
1180	C	0.664482	0.905272	0.954075
1181	C	0.661597	0.90938	0.919543
1182	H	0.638712	0.933282	0.909052
1183	C	0.342529	0.845015	0.946812
1184	C	0.371433	0.873049	0.967336
1185	C	0.404721	0.905387	0.95393
1186	C	0.407649	0.909465	0.919399
1187	C	0.379146	0.881017	0.898867
1188	C	0.346469	0.84807	0.912283
1189	H	0.430633	0.933278	0.90891
1190	H	0.367986	0.869655	0.99223
1191	H	0.382486	0.88449	0.873971
1192	H	0.696827	0.967128	0.995599
1193	C	0.784417	0.742917	0.871233
1194	C	0.751594	0.768627	0.891247
1195	C	0.752148	0.819426	0.891671
1196	C	0.784371	0.843692	0.871103
1197	C	0.816612	0.819341	0.850596
1198	C	0.817226	0.768549	0.851158
1199	C	0.718085	0.742336	0.909646
1200	H	0.784332	0.880287	0.871039
1201	C	0.784399	0.691744	0.871263
1202	C	0.718046	0.692482	0.909658
1203	H	0.692365	0.675836	0.92316
1204	H	0.692422	0.759043	0.923126
1205	H	0.882057	0.884486	0.86772
1206	C	0.726416	0.844633	0.946972
1207	C	0.697622	0.872792	0.967491
1208	C	0.68999	0.880811	0.899019
1209	C	0.722515	0.847717	0.912438
1210	H	0.701022	0.869366	0.992384
1211	H	0.750291	0.821736	0.957468
1212	H	0.686685	0.884319	0.874126
1213	C	0.060089	0.035043	0.20615
1214	C	0.01044	0.035056	0.206174
1215	H	0.076702	0.060661	0.192513
1216	C	0.285369	0.192778	0.120624
1217	C	0.31819	0.167168	0.100551
1218	C	0.317585	0.116373	0.0999798
1219	C	0.285302	0.091998	0.120442
1220	C	0.253051	0.116251	0.140998
1221	C	0.252524	0.16705	0.140611
1222	C	0.219028	0.193327	0.159032
1223	H	0.285259	0.055401	0.120364
1224	C	0.285363	0.243952	0.120685
1225	C	0.318163	0.269684	0.100667
1226	C	0.317533	0.320483	0.10021
1227	C	0.253044	0.320351	0.141268
1228	C	0.252525	0.269559	0.14075
1229	C	0.21903	0.243181	0.159101
1230	H	0.193368	0.259821	0.172622
1231	H	0.193351	0.176616	0.172497
1232	H	0.251381	0.322437	0.207065
1233	C	0.227345	0.091033	0.196291
1234	C	0.198444	0.063001	0.216818
1235	C	0.165157	0.030658	0.203414
1236	C	0.162222	0.026578	0.168883
1237	C	0.190724	0.055027	0.148349
1238	C	0.223405	0.087969	0.161763
1239	H	0.139236	0.002768	0.158396
1240	H	0.201892	0.066401	0.241711
1241	H	0.25131	0.113844	0.206783
1242	H	0.187377	0.051556	0.123453
1243	H	0.575994	0.06125	0.0477138
1244	H	0.493128	0.061246	0.0476918
1245	C	0.351706	0.19355	0.0822158
1246	C	0.351691	0.24341	0.0822698
1247	H	0.377332	0.260136	0.0687778
1248	H	0.37735	0.176904	0.0686798
1249	C	0.661128	0.026675	0.0716218
1250	H	0.638201	0.00267	0.0819588
1251	C	0.407941	0.026614	0.0715458
1252	C	0.379678	0.055029	0.0922538
1253	C	0.34707	0.088209	0.0790388
1254	H	0.430921	0.002662	0.0818848
1255	H	0.38315	0.051359	0.117128
1256	H	0.991761	0.060709	0.192574
1257	C	0.783398	0.193127	0.120722
1258	C	0.816229	0.167417	0.140731
1259	C	0.815679	0.116619	0.141153
1260	C	0.783448	0.092355	0.120592
1261	C	0.751203	0.116704	0.100085
1262	C	0.750586	0.167498	0.10065
1263	C	0.849741	0.193708	0.159125
1264	C	0.717074	0.193856	0.0823018
1265	H	0.783487	0.055758	0.120526
1266	C	0.783416	0.244302	0.120752
1267	C	0.816282	0.269931	0.14078
1268	C	0.815785	0.320727	0.141256
1269	C	0.751246	0.320807	0.10024
1270	C	0.750603	0.27001	0.100731
1271	C	0.849759	0.243563	0.159157
1272	C	0.71707	0.243715	0.0823508
1273	H	0.875451	0.26021	0.172647
1274	H	0.875398	0.177003	0.172615
1275	H	0.691413	0.260423	0.0688608
1276	H	0.691428	0.177192	0.0687758
1277	C	0.689255	0.055217	0.0923368
1278	C	0.72177	0.088499	0.0791318
1279	H	0.685759	0.051556	0.117209
1280	C	0.841406	0.091412	0.196456
1281	C	0.870201	0.063256	0.216975
1282	C	0.903337	0.030768	0.203559
1283	C	0.906222	0.026663	0.169028
1284	C	0.877833	0.055233	0.148504
1285	C	0.845311	0.088328	0.161922
1286	H	0.92911	0.002763	0.158534
1287	H	0.8668	0.066679	0.241869
1288	H	0.817532	0.114313	0.206952
1289	H	0.881137	0.051726	0.123607
1290	H	0.817489	0.322924	0.20704
1291	C	0.285256	0.344722	0.120754
1292	H	0.285188	0.38132	0.120764
1293	C	0.010779	0.40155	0.206611
1294	C	0.086655	0.434915	0.225221
1295	C	0.137234	0.435428	0.224794
1296	C	0.060427	0.401497	0.206648
1297	H	0.077035	0.37588	0.193006
1298	C	0.162458	0.410082	0.169396
1299	C	0.190825	0.38162	0.148788
1300	C	0.223432	0.348531	0.162113
1301	C	0.227443	0.345338	0.196637
1302	C	0.198676	0.373395	0.21724
1303	C	0.165458	0.405875	0.203917
1304	H	0.187444	0.3852	0.123902
1305	H	0.139511	0.433988	0.15897
1306	H	0.20216	0.369901	0.242124
1307	H	0.492801	0.376518	0.0483198
1308	H	0.57566	0.376475	0.0483008
1309	C	0.407468	0.410852	0.0720218
1310	C	0.379331	0.382183	0.0926458
1311	C	0.346984	0.348815	0.0793408
1312	H	0.382699	0.385813	0.117528
1313	H	0.430271	0.434908	0.0824298
1314	C	0.661025	0.410845	0.0719898
1315	H	0.638144	0.434847	0.0823778
1316	H	0.87134	0.467883	0.245348
1317	C	0.783551	0.345079	0.120744
1318	H	0.783626	0.381677	0.120727
1319	C	0.982518	0.435011	0.22516
1320	C	0.93194	0.43561	0.224686
1321	C	0.907781	0.467844	0.245348
1322	H	0.992091	0.375976	0.192945
1323	C	0.689284	0.382337	0.0926408
1324	C	0.721763	0.349078	0.0793598
1325	H	0.685904	0.385991	0.11752
1326	C	0.906648	0.41026	0.169293
1327	C	0.878149	0.38188	0.148707
1328	C	0.845449	0.348913	0.162067
1329	C	0.841477	0.345751	0.196591
1330	C	0.870368	0.373716	0.217164
1331	C	0.903677	0.406082	0.203816
1332	H	0.881514	0.385428	0.123818
1333	H	0.929654	0.434088	0.158848
1334	H	0.866896	0.37025	0.242053
1335	H	0.197506	0.966778	0.244931
1336	C	0.060759	0.966721	0.244857
1337	C	0.086316	0.999519	0.224679
1338	C	0.136896	0.998987	0.224235
1339	C	0.161068	0.966757	0.244896
1340	C	0.009807	0.966732	0.244884
1341	H	0.870996	0.96686	0.245085
1342	C	0.98217	0.999558	0.22474
1343	C	0.931588	0.999059	0.224355
1344	C	0.907433	0.966821	0.245021
