data_C504H360N144_2018-02-15_10:37:34
#******************************************
#
# CIF file created by Zeo++
# Zeo++ is an open source package to
# analyze microporous materials
#
#*******************************************

_cell_length_a		29.5003   
_cell_length_b		29.5003   
_cell_length_c		29.9202   
_cell_angle_alpha		90   
_cell_angle_beta		90   
_cell_angle_gamma		120   

_symmetry_space_group_name_H-M		'P1'
_symmetry_Int_Tables_number		1
_symmetry_cell_setting		Monoclinic

loop_
_symmetry_equiv_pos_as_xyz
'+x,+y,+z'

loop_
_atom_site_label
_atom_site_type_symbol
_atom_site_fract_x
_atom_site_fract_y
_atom_site_fract_z
1	C	0.029875	0.303781	0.055238
2	C	0.029597	0.227232	0.359614
3	C	0.029659	0.371891	0.099536
4	C	0.028784	0.435866	0.156736
5	H	0.023318	0.46404	0.137135
6	C	0.029875	0.303781	0.388571
7	C	0.029597	0.227232	0.692944
8	C	0.029659	0.371891	0.432869
9	C	0.028784	0.435866	0.490071
10	H	0.023318	0.46404	0.470469
11	C	0.029875	0.303781	0.721904
12	C	0.029597	0.227232	0.02628
13	C	0.029659	0.371891	0.766202
14	C	0.028784	0.435866	0.823401
15	H	0.023318	0.46404	0.803799
16	C	0.029876	0.803781	0.055238
17	C	0.029596	0.727231	0.359614
18	C	0.029657	0.871892	0.099536
19	C	0.028783	0.935866	0.156736
20	H	0.023318	0.96404	0.137135
21	C	0.029876	0.803781	0.388571
22	C	0.029596	0.727231	0.692944
23	C	0.029657	0.871892	0.432869
24	C	0.028783	0.935866	0.490071
25	H	0.023318	0.96404	0.470469
26	C	0.029876	0.803781	0.721904
27	C	0.029596	0.727231	0.02628
28	C	0.029657	0.871892	0.766202
29	C	0.028783	0.935866	0.823401
30	H	0.023318	0.96404	0.803799
31	H	0.039292	0.059945	0.137123
32	H	0.039292	0.059945	0.470455
33	H	0.039292	0.059945	0.803789
34	H	0.039291	0.559946	0.137123
35	H	0.039291	0.559946	0.470455
36	H	0.039291	0.559946	0.803789
37	C	0.196238	0.388893	0.037699
38	N	0.14298	0.361313	0.037574
39	C	0.114445	0.308018	0.037709
40	N	0.142026	0.28234	0.03758
41	C	0.19532	0.3071	0.037705
42	N	0.220997	0.360358	0.037572
43	C	0.308654	0.113784	0.037736
44	N	0.36195	0.142291	0.037601
45	C	0.389554	0.195544	0.037728
46	N	0.361047	0.220334	0.037595
47	C	0.307793	0.194684	0.037729
48	N	0.283004	0.141388	0.037604
49	C	0.222734	0.278901	0.038959
50	C	0.199559	0.226769	0.055242
51	C	0.227509	0.19895	0.055337
52	C	0.279617	0.222118	0.039013
53	C	0.303727	0.275477	0.359647
54	C	0.276105	0.303037	0.359607
55	N	0.20573	0.15275	0.077911
56	C	0.159208	0.130883	0.099574
57	C	0.131446	0.15844	0.099537
58	N	0.153356	0.20495	0.077827
59	H	0.295313	0.340912	0.348457
60	H	0.341585	0.294687	0.348457
61	C	0.143067	0.083956	0.127672
62	C	0.113586	0.085339	0.170069
63	H	0.177236	0.081241	0.137845
64	H	0.11771	0.049342	0.107777
65	C	0.067464	0.093583	0.156729
66	H	0.140473	0.11726	0.191948
67	H	0.098948	0.048851	0.18862
68	C	0.085818	0.144369	0.12894
69	H	0.047813	0.095446	0.187019
70	H	0.096719	0.176842	0.15217
71	H	0.053292	0.140464	0.108608
72	C	0.224444	0.444508	0.038943
73	C	0.276572	0.473462	0.055232
74	C	0.304391	0.029232	0.055335
75	C	0.281219	0.058174	0.039025
76	C	0.22786	0.028926	0.359654
77	C	0.200302	0.473744	0.35961
78	N	0.350591	0.053652	0.07791
79	C	0.372459	0.028994	0.099566
80	C	0.344902	0.473673	0.099522
81	N	0.298393	0.449076	0.077811
82	H	0.162426	0.455077	0.348464
83	H	0.208648	0.047575	0.348471
84	C	0.419382	0.059776	0.127669
85	C	0.417994	0.028904	0.170062
86	H	0.422098	0.096658	0.137845
87	H	0.453998	0.069034	0.107775
88	C	0.409755	0.474542	0.156715
89	H	0.386071	0.023865	0.191938
90	H	0.45448	0.050751	0.188617
91	C	0.358973	0.442113	0.128919
92	H	0.407887	0.453022	0.187003
93	H	0.443395	0.48001	0.137112
94	H	0.326498	0.420534	0.152145
95	H	0.362883	0.413496	0.108583
96	C	0.058832	0.280604	0.038958
97	C	0.474106	0.275832	0.05533
98	C	0.445164	0.223726	0.039
99	C	0.474415	0.199611	0.35965
100	N	0.449684	0.29761	0.077905
101	C	0.47434	0.344129	0.099572
102	N	0.054259	0.349982	0.077825
103	H	0.048264	0.208021	0.348471
104	H	0.455766	0.16175	0.348464
105	C	0.443553	0.360267	0.127675
106	C	0.474417	0.389741	0.170074
107	H	0.406669	0.326098	0.137844
108	H	0.434298	0.385628	0.107783
109	H	0.479452	0.36285	0.191947
110	H	0.452568	0.404376	0.188629
111	C	0.061216	0.417516	0.128942
112	H	0.050297	0.455511	0.187028
113	H	0.082788	0.406611	0.15217
114	H	0.089838	0.450047	0.108613
115	C	0.196238	0.388893	0.371034
116	N	0.14298	0.361313	0.370907
117	C	0.114445	0.308018	0.371041
118	N	0.142026	0.28234	0.370914
119	C	0.19532	0.3071	0.371037
120	N	0.220997	0.360358	0.370904
121	C	0.308654	0.113784	0.371071
122	N	0.36195	0.142291	0.370934
123	C	0.389554	0.195544	0.371061
124	N	0.361047	0.220334	0.370927
125	C	0.307793	0.194684	0.371061
126	N	0.283004	0.141388	0.370937
127	C	0.222734	0.278901	0.372291
128	C	0.199559	0.226769	0.388574
129	C	0.227509	0.19895	0.388671
130	C	0.279617	0.222118	0.372348
131	C	0.303727	0.275477	0.692977
132	C	0.276105	0.303037	0.692941
133	N	0.20573	0.15275	0.411244
134	C	0.159208	0.130883	0.432905
135	C	0.131446	0.15844	0.432869
136	N	0.153356	0.20495	0.411161
137	H	0.295313	0.340912	0.681791
138	H	0.341585	0.294687	0.681791
139	C	0.143067	0.083956	0.461007
140	C	0.113586	0.085339	0.503403
141	H	0.177236	0.081241	0.471177
142	H	0.11771	0.049342	0.441111
143	C	0.067464	0.093583	0.490061
144	H	0.140473	0.11726	0.525281
145	H	0.098948	0.048851	0.521952
146	C	0.085818	0.144369	0.462273
147	H	0.047813	0.095446	0.520351
148	H	0.096719	0.176842	0.485502
149	H	0.053292	0.140464	0.441943
150	C	0.224444	0.444508	0.372274
151	C	0.276572	0.473462	0.388564
152	C	0.304391	0.029232	0.388668
153	C	0.281219	0.058174	0.372358
154	C	0.22786	0.028926	0.692987
155	C	0.200302	0.473744	0.692941
156	N	0.350591	0.053652	0.411241
157	C	0.372459	0.028994	0.432899
158	C	0.344902	0.473673	0.432855
159	N	0.298393	0.449076	0.411144
160	H	0.162426	0.455077	0.681798
161	H	0.208648	0.047575	0.681804
162	C	0.419382	0.059776	0.461
163	C	0.417994	0.028904	0.503396
164	H	0.422098	0.096658	0.471177
165	H	0.453998	0.069034	0.441107
166	C	0.409755	0.474542	0.490047
167	H	0.386071	0.023865	0.525271
168	H	0.45448	0.050751	0.521949
169	C	0.358973	0.442113	0.462253
170	H	0.407887	0.453022	0.520335
171	H	0.443395	0.48001	0.470445
172	H	0.326498	0.420534	0.485479
173	H	0.362883	0.413496	0.441916
174	C	0.058832	0.280604	0.372291
175	C	0.474106	0.275832	0.388664
176	C	0.445164	0.223726	0.372334
177	C	0.474415	0.199611	0.692981
178	N	0.449684	0.29761	0.411238
179	C	0.47434	0.344129	0.432905
180	N	0.054259	0.349982	0.411157
181	H	0.048264	0.208021	0.681804
182	H	0.455766	0.16175	0.681798
183	C	0.443553	0.360267	0.461007
184	C	0.474417	0.389741	0.503406
185	H	0.406669	0.326098	0.471177
186	H	0.434298	0.385628	0.441117
187	H	0.479452	0.36285	0.525281
188	H	0.452568	0.404376	0.521962
189	C	0.061216	0.417516	0.462277
190	H	0.050297	0.455511	0.520361
191	H	0.082788	0.406611	0.485502
192	H	0.089838	0.450047	0.441946
193	C	0.196238	0.388893	0.704364
194	N	0.14298	0.361313	0.704241
195	C	0.114445	0.308018	0.704374
196	N	0.142026	0.28234	0.704247
197	C	0.19532	0.3071	0.704371
198	N	0.220997	0.360358	0.704237
199	C	0.308654	0.113784	0.704401
200	N	0.36195	0.142291	0.704267
201	C	0.389554	0.195544	0.704394
202	N	0.361047	0.220334	0.704261
203	C	0.307793	0.194684	0.704394
204	N	0.283004	0.141388	0.704271
205	C	0.222734	0.278901	0.705624
206	C	0.199559	0.226769	0.721908
207	C	0.227509	0.19895	0.722001
208	C	0.279617	0.222118	0.705678
209	C	0.303727	0.275477	0.026313
210	C	0.276105	0.303037	0.026274
211	N	0.20573	0.15275	0.744578
212	C	0.159208	0.130883	0.766239
213	C	0.131446	0.15844	0.766202
214	N	0.153356	0.20495	0.744495
215	H	0.295313	0.340912	0.015125
216	H	0.341585	0.294687	0.015124
217	C	0.143067	0.083956	0.794337
218	C	0.113586	0.085339	0.836737
219	H	0.177236	0.081241	0.804511
220	H	0.11771	0.049342	0.774444
221	C	0.067464	0.093583	0.823394
222	H	0.140473	0.11726	0.858615
223	H	0.098948	0.048851	0.855286
224	C	0.085818	0.144369	0.795607
225	H	0.047813	0.095446	0.853685
226	H	0.096719	0.176842	0.818836
227	H	0.053292	0.140464	0.775273
228	C	0.224444	0.444508	0.705608
229	C	0.276572	0.473462	0.721898
230	C	0.304391	0.029232	0.722001
231	C	0.281219	0.058174	0.705691
232	C	0.22786	0.028926	0.026321
233	C	0.200302	0.473744	0.026276
234	N	0.350591	0.053652	0.744575
235	C	0.372459	0.028994	0.766232
236	C	0.344902	0.473673	0.766189
237	N	0.298393	0.449076	0.744478
238	H	0.162426	0.455077	0.01513
239	H	0.208648	0.047575	0.015139
240	C	0.419382	0.059776	0.794334
241	C	0.417994	0.028904	0.836727
242	H	0.422098	0.096658	0.804511
243	H	0.453998	0.069034	0.774441
244	C	0.409755	0.474542	0.823381
245	H	0.386071	0.023865	0.858605
246	H	0.45448	0.050751	0.855283
247	C	0.358973	0.442113	0.795584
248	H	0.407887	0.453022	0.853668
249	H	0.443395	0.48001	0.803779
250	H	0.326498	0.420534	0.818812
251	H	0.362883	0.413496	0.77525
252	C	0.058832	0.280604	0.705624
253	C	0.474106	0.275832	0.721995
254	C	0.445164	0.223726	0.705665
255	C	0.474415	0.199611	0.026316
256	N	0.449684	0.29761	0.744571
257	C	0.47434	0.344129	0.766239
258	N	0.054259	0.349982	0.744491
259	H	0.048264	0.208021	0.015138
260	H	0.455766	0.16175	0.015132
261	C	0.443553	0.360267	0.79434
262	C	0.474417	0.389741	0.83674
263	H	0.406669	0.326098	0.804511
264	H	0.434298	0.385628	0.774448
265	H	0.479452	0.36285	0.858615
266	H	0.452568	0.404376	0.855296
267	C	0.061216	0.417516	0.795607
268	H	0.050297	0.455511	0.853695
269	H	0.082788	0.406611	0.818836
270	H	0.089838	0.450047	0.77528
271	C	0.196237	0.888891	0.037699
272	N	0.142979	0.861312	0.037574
273	C	0.114444	0.808016	0.037709
274	N	0.142025	0.782339	0.03758
275	C	0.19532	0.8071	0.037705
276	N	0.220996	0.860357	0.037572
277	C	0.308653	0.613782	0.037736
278	N	0.361949	0.642289	0.037601
279	C	0.389554	0.695546	0.037728
280	N	0.361047	0.720334	0.037595
281	C	0.307793	0.694684	0.037729
282	N	0.283004	0.641389	0.037604
283	C	0.222733	0.778898	0.038959
284	C	0.199559	0.726769	0.055242
285	C	0.227509	0.698951	0.055337
286	C	0.279617	0.722119	0.039013
287	C	0.303727	0.775477	0.359647
288	C	0.276104	0.803037	0.359607
289	N	0.205728	0.652748	0.077911
290	C	0.159207	0.630883	0.099574
291	C	0.131445	0.658439	0.099537
292	N	0.153357	0.704951	0.077827
293	H	0.295312	0.840911	0.348457
294	H	0.341585	0.794688	0.348457
295	C	0.143066	0.583956	0.127672
296	C	0.113585	0.585337	0.170069
297	H	0.177235	0.581239	0.137845
298	H	0.117709	0.549342	0.107777
299	C	0.067463	0.593581	0.156729
300	H	0.140472	0.617258	0.191948
301	H	0.098946	0.548849	0.18862
302	C	0.085816	0.644367	0.12894
303	H	0.047812	0.595444	0.187019
304	H	0.096719	0.676844	0.15217
305	H	0.053291	0.640465	0.108608
306	C	0.224441	0.944504	0.038943
307	C	0.276571	0.973462	0.055232
308	C	0.30439	0.529231	0.055335
309	C	0.281217	0.558173	0.039025
310	C	0.22786	0.528926	0.359654
311	C	0.200302	0.973743	0.35961
312	N	0.35059	0.553652	0.07791
313	C	0.372457	0.528992	0.099566
314	C	0.344902	0.973673	0.099522
315	N	0.298393	0.949076	0.077811
316	H	0.162425	0.955077	0.348464
317	H	0.208647	0.547573	0.348471
318	C	0.419382	0.559774	0.127669
319	C	0.417993	0.528902	0.170062
320	H	0.422098	0.596657	0.137845
321	H	0.453999	0.569035	0.107775
322	C	0.409755	0.974542	0.156715
323	H	0.386069	0.523865	0.191938
324	H	0.454479	0.550751	0.188617
325	C	0.358973	0.942113	0.128919
326	H	0.407886	0.953022	0.187003
327	H	0.443395	0.98001	0.137112
328	H	0.326497	0.920534	0.152145
329	H	0.362882	0.913496	0.108583
330	C	0.058832	0.780605	0.038958
331	C	0.474105	0.77583	0.05533
332	C	0.445163	0.723724	0.039
333	C	0.474413	0.699609	0.35965
334	N	0.449683	0.797608	0.077905
335	C	0.474339	0.844129	0.099572
336	N	0.054257	0.84998	0.077825
337	H	0.048263	0.70802	0.348471
338	H	0.455766	0.66175	0.348464
339	C	0.443553	0.860267	0.127675
340	C	0.474417	0.889741	0.170074
341	H	0.406668	0.826096	0.137844
342	H	0.434297	0.885627	0.107783
343	H	0.479451	0.86285	0.191947
344	H	0.452568	0.904376	0.188629
345	C	0.061215	0.917516	0.128942
346	H	0.050297	0.955511	0.187028
347	H	0.082789	0.906611	0.15217
348	H	0.089834	0.950043	0.108613
349	C	0.196237	0.888891	0.371034
350	N	0.142979	0.861312	0.370907
351	C	0.114444	0.808016	0.371041
352	N	0.142025	0.782339	0.370914
353	C	0.19532	0.8071	0.371037
354	N	0.220996	0.860357	0.370904
355	C	0.308653	0.613782	0.371071
356	N	0.361949	0.642289	0.370934
357	C	0.389554	0.695546	0.371061
358	N	0.361047	0.720334	0.370927
359	C	0.307793	0.694684	0.371061
360	N	0.283004	0.641389	0.370937
361	C	0.222733	0.778898	0.372291
362	C	0.199559	0.726769	0.388574
363	C	0.227509	0.698951	0.388671
364	C	0.279617	0.722119	0.372348
365	C	0.303727	0.775477	0.692977
366	C	0.276104	0.803037	0.692941
367	N	0.205728	0.652748	0.411244
368	C	0.159207	0.630883	0.432905
369	C	0.131445	0.658439	0.432869
370	N	0.153357	0.704951	0.411161
371	H	0.295312	0.840911	0.681791
372	H	0.341585	0.794688	0.681791
373	C	0.143066	0.583956	0.461007
374	C	0.113585	0.585337	0.503403
375	H	0.177235	0.581239	0.471177
376	H	0.117709	0.549342	0.441111
377	C	0.067463	0.593581	0.490061
378	H	0.140472	0.617258	0.525281
379	H	0.098946	0.548849	0.521952
380	C	0.085816	0.644367	0.462273
381	H	0.047812	0.595444	0.520351
382	H	0.096719	0.676844	0.485502
383	H	0.053291	0.640465	0.441943
384	C	0.224441	0.944504	0.372274
385	C	0.276571	0.973462	0.388564
386	C	0.30439	0.529231	0.388668
387	C	0.281217	0.558173	0.372358
388	C	0.22786	0.528926	0.692987
389	C	0.200302	0.973743	0.692941
390	N	0.35059	0.553652	0.411241
391	C	0.372457	0.528992	0.432899
392	C	0.344902	0.973673	0.432855
393	N	0.298393	0.949076	0.411144
394	H	0.162425	0.955077	0.681798
395	H	0.208647	0.547573	0.681804
396	C	0.419382	0.559774	0.461
397	C	0.417993	0.528902	0.503396
398	H	0.422098	0.596657	0.471177
399	H	0.453999	0.569035	0.441107
400	C	0.409755	0.974542	0.490047
401	H	0.386069	0.523865	0.525271
402	H	0.454479	0.550751	0.521949
403	C	0.358973	0.942113	0.462253
404	H	0.407886	0.953022	0.520335
405	H	0.443395	0.98001	0.470445
406	H	0.326497	0.920534	0.485479
407	H	0.362882	0.913496	0.441916
408	C	0.058832	0.780605	0.372291
409	C	0.474105	0.77583	0.388664
410	C	0.445163	0.723724	0.372334
411	C	0.474413	0.699609	0.692981
412	N	0.449683	0.797608	0.411238
413	C	0.474339	0.844129	0.432905
414	N	0.054257	0.84998	0.411157
415	H	0.048263	0.70802	0.681804
416	H	0.455766	0.66175	0.681798
417	C	0.443553	0.860267	0.461007
418	C	0.474417	0.889741	0.503406
419	H	0.406668	0.826096	0.471177
420	H	0.434297	0.885627	0.441117
421	H	0.479451	0.86285	0.525281
422	H	0.452568	0.904376	0.521962
423	C	0.061215	0.917516	0.462277
424	H	0.050297	0.955511	0.520361
425	H	0.082789	0.906611	0.485502
426	H	0.089834	0.950043	0.441946
427	C	0.196237	0.888891	0.704364
428	N	0.142979	0.861312	0.704241
429	C	0.114444	0.808016	0.704374
430	N	0.142025	0.782339	0.704247
431	C	0.19532	0.8071	0.704371
432	N	0.220996	0.860357	0.704237
433	C	0.308653	0.613782	0.704401
434	N	0.361949	0.642289	0.704267
435	C	0.389554	0.695546	0.704394
436	N	0.361047	0.720334	0.704261
437	C	0.307793	0.694684	0.704394
438	N	0.283004	0.641389	0.704271
439	C	0.222733	0.778898	0.705624
440	C	0.199559	0.726769	0.721908
441	C	0.227509	0.698951	0.722001
442	C	0.279617	0.722119	0.705678
443	C	0.303727	0.775477	0.026313
444	C	0.276104	0.803037	0.026274
445	N	0.205728	0.652748	0.744578
446	C	0.159207	0.630883	0.766239
447	C	0.131445	0.658439	0.766202
448	N	0.153357	0.704951	0.744495
449	H	0.295312	0.840911	0.015125
450	H	0.341585	0.794688	0.015124
451	C	0.143066	0.583956	0.794337
452	C	0.113585	0.585337	0.836737
453	H	0.177235	0.581239	0.804511
454	H	0.117709	0.549342	0.774444
455	C	0.067463	0.593581	0.823394
456	H	0.140472	0.617258	0.858615
457	H	0.098946	0.548849	0.855286
458	C	0.085816	0.644367	0.795607
459	H	0.047812	0.595444	0.853685
460	H	0.096719	0.676844	0.818836
461	H	0.053291	0.640465	0.775273
462	C	0.224441	0.944504	0.705608
463	C	0.276571	0.973462	0.721898
464	C	0.30439	0.529231	0.722001
465	C	0.281217	0.558173	0.705691
466	C	0.22786	0.528926	0.026321
467	C	0.200302	0.973743	0.026276
468	N	0.35059	0.553652	0.744575
469	C	0.372457	0.528992	0.766232
470	C	0.344902	0.973673	0.766189
471	N	0.298393	0.949076	0.744478
472	H	0.162425	0.955077	0.01513
473	H	0.208647	0.547573	0.015139
474	C	0.419382	0.559774	0.794334
475	C	0.417993	0.528902	0.836727
476	H	0.422098	0.596657	0.804511
477	H	0.453999	0.569035	0.774441
478	C	0.409755	0.974542	0.823381
479	H	0.386069	0.523865	0.858605
480	H	0.454479	0.550751	0.855283
481	C	0.358973	0.942113	0.795584
482	H	0.407886	0.953022	0.853668
483	H	0.443395	0.98001	0.803779
484	H	0.326497	0.920534	0.818812
485	H	0.362882	0.913496	0.77525
486	C	0.058832	0.780605	0.705624
487	C	0.474105	0.77583	0.721995
488	C	0.445163	0.723724	0.705665
489	C	0.474413	0.699609	0.026316
490	N	0.449683	0.797608	0.744571
491	C	0.474339	0.844129	0.766239
492	N	0.054257	0.84998	0.744491
493	H	0.048263	0.70802	0.015138
494	H	0.455766	0.66175	0.015132
495	C	0.443553	0.860267	0.79434
496	C	0.474417	0.889741	0.83674
497	H	0.406668	0.826096	0.804511
498	H	0.434297	0.885627	0.774448
499	H	0.479451	0.86285	0.858615
500	H	0.452568	0.904376	0.855296
501	C	0.061215	0.917516	0.795607
502	H	0.050297	0.955511	0.853695
503	H	0.082789	0.906611	0.818836
504	H	0.089834	0.950043	0.77528
505	C	0.696238	0.388893	0.037699
506	N	0.64298	0.361313	0.037574
507	C	0.614445	0.308018	0.037709
508	N	0.642026	0.28234	0.03758
509	C	0.69532	0.3071	0.037705
510	N	0.720996	0.360358	0.037572
511	C	0.808654	0.113784	0.037736
512	N	0.861951	0.142291	0.037601
513	C	0.889554	0.195544	0.037728
514	N	0.861047	0.220334	0.037595
515	C	0.807792	0.194684	0.037729
516	N	0.783005	0.141388	0.037604
517	C	0.722732	0.278901	0.038959
518	C	0.699558	0.226769	0.055242
519	C	0.727509	0.19895	0.055337
520	C	0.779618	0.222118	0.039013
521	C	0.803725	0.275477	0.359647
522	C	0.776105	0.303037	0.359607
523	N	0.705728	0.15275	0.077911
524	C	0.659208	0.130883	0.099574
525	C	0.631445	0.15844	0.099537
526	N	0.653357	0.20495	0.077827
527	H	0.795313	0.340912	0.348457
528	H	0.841584	0.294687	0.348457
529	C	0.643067	0.083956	0.127672
530	C	0.613586	0.085339	0.170069
531	H	0.677234	0.081241	0.137845
532	H	0.617709	0.049342	0.107777
533	C	0.567464	0.093583	0.156729
534	H	0.640471	0.11726	0.191948
535	H	0.598948	0.048851	0.18862
536	C	0.585817	0.144369	0.12894
537	H	0.547813	0.095446	0.187019
538	H	0.539289	0.059945	0.137123
539	H	0.596717	0.176842	0.15217
540	H	0.553291	0.140464	0.108608
541	C	0.724442	0.444508	0.038943
542	C	0.776572	0.473462	0.055232
543	C	0.804391	0.029232	0.055335
544	C	0.781218	0.058174	0.039025
545	C	0.727859	0.028926	0.359654
546	C	0.7003	0.473744	0.35961
547	N	0.85059	0.053652	0.07791
548	C	0.872458	0.028994	0.099566
549	C	0.844901	0.473673	0.099522
550	N	0.798393	0.449076	0.077811
551	H	0.662425	0.455077	0.348464
552	H	0.708648	0.047575	0.348471
553	C	0.919384	0.059776	0.127669
554	C	0.917995	0.028904	0.170062
555	H	0.922096	0.096658	0.137845
556	H	0.953999	0.069034	0.107775
557	C	0.909755	0.474542	0.156715
558	H	0.886069	0.023865	0.191938
559	H	0.954478	0.050751	0.188617
560	C	0.858971	0.442113	0.128919
561	H	0.907886	0.453022	0.187003
562	H	0.943394	0.48001	0.137112
563	H	0.826497	0.420534	0.152145
564	H	0.862883	0.413496	0.108583
565	C	0.55883	0.280604	0.038958
566	C	0.529876	0.303781	0.055238
567	C	0.974107	0.275832	0.05533
568	C	0.945163	0.223726	0.039
569	C	0.974413	0.199611	0.35965
570	C	0.529598	0.227232	0.359614
571	N	0.949684	0.29761	0.077905
572	C	0.974337	0.344129	0.099572
573	C	0.529657	0.371891	0.099536
574	N	0.554258	0.349982	0.077825
575	H	0.548263	0.208021	0.348471
576	H	0.955764	0.16175	0.348464
577	C	0.943552	0.360267	0.127675
578	C	0.974418	0.389741	0.170074
579	H	0.906668	0.326098	0.137844
580	H	0.934297	0.385628	0.107783
581	C	0.528783	0.435866	0.156736
582	H	0.97945	0.36285	0.191947
583	H	0.952566	0.404376	0.188629
584	C	0.561215	0.417516	0.128942
585	H	0.550296	0.455511	0.187028
586	H	0.523317	0.46404	0.137135
587	H	0.582786	0.406611	0.15217
588	H	0.589836	0.450047	0.108613
589	C	0.696238	0.388893	0.371034
590	N	0.64298	0.361313	0.370907
591	C	0.614445	0.308018	0.371041
592	N	0.642026	0.28234	0.370914
593	C	0.69532	0.3071	0.371037
594	N	0.720996	0.360358	0.370904
595	C	0.808654	0.113784	0.371071
596	N	0.861951	0.142291	0.370934
597	C	0.889554	0.195544	0.371061
598	N	0.861047	0.220334	0.370927
599	C	0.807792	0.194684	0.371061
600	N	0.783005	0.141388	0.370937
601	C	0.722732	0.278901	0.372291
602	C	0.699558	0.226769	0.388574
603	C	0.727509	0.19895	0.388671
604	C	0.779618	0.222118	0.372348
605	C	0.803725	0.275477	0.692977
606	C	0.776105	0.303037	0.692941
607	N	0.705728	0.15275	0.411244
608	C	0.659208	0.130883	0.432905
609	C	0.631445	0.15844	0.432869
610	N	0.653357	0.20495	0.411161
611	H	0.795313	0.340912	0.681791
612	H	0.841584	0.294687	0.681791
613	C	0.643067	0.083956	0.461007
614	C	0.613586	0.085339	0.503403
615	H	0.677234	0.081241	0.471177
616	H	0.617709	0.049342	0.441111
617	C	0.567464	0.093583	0.490061
618	H	0.640471	0.11726	0.525281
619	H	0.598948	0.048851	0.521952
620	C	0.585817	0.144369	0.462273
621	H	0.547813	0.095446	0.520351
622	H	0.539289	0.059945	0.470455
623	H	0.596717	0.176842	0.485502
624	H	0.553291	0.140464	0.441943
625	C	0.724442	0.444508	0.372274
626	C	0.776572	0.473462	0.388564
627	C	0.804391	0.029232	0.388668
628	C	0.781218	0.058174	0.372358
629	C	0.727859	0.028926	0.692987
630	C	0.7003	0.473744	0.692941
631	N	0.85059	0.053652	0.411241
632	C	0.872458	0.028994	0.432899
633	C	0.844901	0.473673	0.432855
634	N	0.798393	0.449076	0.411144
635	H	0.662425	0.455077	0.681798
636	H	0.708648	0.047575	0.681804
637	C	0.919384	0.059776	0.461
638	C	0.917995	0.028904	0.503396
639	H	0.922096	0.096658	0.471177
640	H	0.953999	0.069034	0.441107
641	C	0.909755	0.474542	0.490047
642	H	0.886069	0.023865	0.525271
643	H	0.954478	0.050751	0.521949
644	C	0.858971	0.442113	0.462253
645	H	0.907886	0.453022	0.520335
646	H	0.943394	0.48001	0.470445
647	H	0.826497	0.420534	0.485479
648	H	0.862883	0.413496	0.441916
649	C	0.55883	0.280604	0.372291
650	C	0.529876	0.303781	0.388571
651	C	0.974107	0.275832	0.388664
652	C	0.945163	0.223726	0.372334
653	C	0.974413	0.199611	0.692981
654	C	0.529598	0.227232	0.692944
655	N	0.949684	0.29761	0.411238
656	C	0.974337	0.344129	0.432905
657	C	0.529657	0.371891	0.432869
658	N	0.554258	0.349982	0.411157
659	H	0.548263	0.208021	0.681804
660	H	0.955764	0.16175	0.681798
661	C	0.943552	0.360267	0.461007
662	C	0.974418	0.389741	0.503406
663	H	0.906668	0.326098	0.471177
664	H	0.934297	0.385628	0.441117
665	C	0.528783	0.435866	0.490071
666	H	0.97945	0.36285	0.525281
667	H	0.952566	0.404376	0.521962
668	C	0.561215	0.417516	0.462277
669	H	0.550296	0.455511	0.520361
670	H	0.523317	0.46404	0.470469
671	H	0.582786	0.406611	0.485502
672	H	0.589836	0.450047	0.441946
673	C	0.696238	0.388893	0.704364
674	N	0.64298	0.361313	0.704241
675	C	0.614445	0.308018	0.704374
676	N	0.642026	0.28234	0.704247
677	C	0.69532	0.3071	0.704371
678	N	0.720996	0.360358	0.704237
679	C	0.808654	0.113784	0.704401
680	N	0.861951	0.142291	0.704267
681	C	0.889554	0.195544	0.704394
682	N	0.861047	0.220334	0.704261
683	C	0.807792	0.194684	0.704394
684	N	0.783005	0.141388	0.704271
685	C	0.722732	0.278901	0.705624
686	C	0.699558	0.226769	0.721908
687	C	0.727509	0.19895	0.722001
688	C	0.779618	0.222118	0.705678
689	C	0.803725	0.275477	0.026313
690	C	0.776105	0.303037	0.026274
691	N	0.705728	0.15275	0.744578
692	C	0.659208	0.130883	0.766239
693	C	0.631445	0.15844	0.766202
694	N	0.653357	0.20495	0.744495
695	H	0.795313	0.340912	0.015125
696	H	0.841584	0.294687	0.015124
697	C	0.643067	0.083956	0.794337
698	C	0.613586	0.085339	0.836737
699	H	0.677234	0.081241	0.804511
700	H	0.617709	0.049342	0.774444
701	C	0.567464	0.093583	0.823394
702	H	0.640471	0.11726	0.858615
703	H	0.598948	0.048851	0.855286
704	C	0.585817	0.144369	0.795607
705	H	0.547813	0.095446	0.853685
706	H	0.539289	0.059945	0.803789
707	H	0.596717	0.176842	0.818836
708	H	0.553291	0.140464	0.775273
709	C	0.724442	0.444508	0.705608
710	C	0.776572	0.473462	0.721898
711	C	0.804391	0.029232	0.722001
712	C	0.781218	0.058174	0.705691
713	C	0.727859	0.028926	0.026321
714	C	0.7003	0.473744	0.026276
715	N	0.85059	0.053652	0.744575
716	C	0.872458	0.028994	0.766232
717	C	0.844901	0.473673	0.766189
718	N	0.798393	0.449076	0.744478
719	H	0.662425	0.455077	0.01513
720	H	0.708648	0.047575	0.015139
721	C	0.919384	0.059776	0.794334
722	C	0.917995	0.028904	0.836727
723	H	0.922096	0.096658	0.804511
724	H	0.953999	0.069034	0.774441
725	C	0.909755	0.474542	0.823381
726	H	0.886069	0.023865	0.858605
727	H	0.954478	0.050751	0.855283
728	C	0.858971	0.442113	0.795584
729	H	0.907886	0.453022	0.853668
730	H	0.943394	0.48001	0.803779
731	H	0.826497	0.420534	0.818812
732	H	0.862883	0.413496	0.77525
733	C	0.55883	0.280604	0.705624
734	C	0.529876	0.303781	0.721904
735	C	0.974107	0.275832	0.721995
736	C	0.945163	0.223726	0.705665
737	C	0.974413	0.199611	0.026316
738	C	0.529598	0.227232	0.02628
739	N	0.949684	0.29761	0.744571
740	C	0.974337	0.344129	0.766239
741	C	0.529657	0.371891	0.766202
742	N	0.554258	0.349982	0.744491
743	H	0.548263	0.208021	0.015138
744	H	0.955764	0.16175	0.015132
745	C	0.943552	0.360267	0.79434
746	C	0.974418	0.389741	0.83674
747	H	0.906668	0.326098	0.804511
748	H	0.934297	0.385628	0.774448
749	C	0.528783	0.435866	0.823401
750	H	0.97945	0.36285	0.858615
751	H	0.952566	0.404376	0.855296
752	C	0.561215	0.417516	0.795607
753	H	0.550296	0.455511	0.853695
754	H	0.523317	0.46404	0.803799
755	H	0.582786	0.406611	0.818836
756	H	0.589836	0.450047	0.77528
757	C	0.696236	0.888891	0.037699
758	N	0.642978	0.861312	0.037574
759	C	0.614443	0.808016	0.037709
760	N	0.642024	0.782339	0.03758
761	C	0.695319	0.8071	0.037705
762	N	0.720995	0.860357	0.037572
763	C	0.808651	0.613782	0.037736
764	N	0.861948	0.642289	0.037601
765	C	0.889553	0.695546	0.037728
766	N	0.861046	0.720334	0.037595
767	C	0.807794	0.694684	0.037729
768	N	0.783004	0.641389	0.037604
769	C	0.722732	0.778898	0.038959
770	C	0.699558	0.726769	0.055242
771	C	0.727508	0.698951	0.055337
772	C	0.779617	0.722119	0.039013
773	C	0.803726	0.775477	0.359647
774	C	0.776103	0.803037	0.359607
775	N	0.705728	0.652748	0.077911
776	C	0.659206	0.630883	0.099574
777	C	0.631444	0.658439	0.099537
778	N	0.653356	0.704951	0.077827
779	H	0.795311	0.840911	0.348457
780	H	0.841586	0.794688	0.348457
781	C	0.643065	0.583956	0.127672
782	C	0.613584	0.585337	0.170069
783	H	0.677235	0.581239	0.137845
784	H	0.617707	0.549342	0.107777
785	C	0.567462	0.593581	0.156729
786	H	0.640471	0.617258	0.191948
787	H	0.598946	0.548849	0.18862
788	C	0.585816	0.644367	0.12894
789	H	0.547811	0.595444	0.187019
790	H	0.539291	0.559946	0.137123
791	H	0.596719	0.676844	0.15217
792	H	0.553291	0.640465	0.108608
793	C	0.724441	0.944504	0.038943
794	C	0.77657	0.973462	0.055232
795	C	0.804389	0.529231	0.055335
796	C	0.781216	0.558173	0.039025
797	C	0.727861	0.528926	0.359654
798	C	0.700301	0.973743	0.35961
799	N	0.850589	0.553652	0.07791
800	C	0.872455	0.528992	0.099566
801	C	0.844902	0.973673	0.099522
802	N	0.798391	0.949076	0.077811
803	H	0.662424	0.955077	0.348464
804	H	0.708646	0.547573	0.348471
805	C	0.919381	0.559774	0.127669
806	C	0.917993	0.528902	0.170062
807	H	0.922098	0.596657	0.137845
808	H	0.953998	0.569035	0.107775
809	C	0.909753	0.974542	0.156715
810	H	0.886068	0.523865	0.191938
811	H	0.95448	0.550751	0.188617
812	C	0.858973	0.942113	0.128919
813	H	0.907885	0.953022	0.187003
814	H	0.943395	0.98001	0.137112
815	H	0.826496	0.920534	0.152145
816	H	0.862881	0.913496	0.108583
817	C	0.558831	0.780605	0.038958
818	C	0.529874	0.803781	0.055238
819	C	0.974104	0.77583	0.05533
820	C	0.945163	0.723724	0.039
821	C	0.97441	0.699609	0.35965
822	C	0.529596	0.727231	0.359614
823	N	0.949682	0.797608	0.077905
824	C	0.974339	0.844129	0.099572
825	C	0.529658	0.871892	0.099536
826	N	0.554257	0.84998	0.077825
827	H	0.548262	0.70802	0.348471
828	H	0.955766	0.66175	0.348464
829	C	0.94355	0.860267	0.127675
830	C	0.974416	0.889741	0.170074
831	H	0.906665	0.826096	0.137844
832	H	0.934295	0.885627	0.107783
833	C	0.528782	0.935866	0.156736
834	H	0.979452	0.86285	0.191947
835	H	0.952568	0.904376	0.188629
836	C	0.561215	0.917516	0.128942
837	H	0.550296	0.955511	0.187028
838	H	0.523316	0.96404	0.137135
839	H	0.582787	0.906611	0.15217
840	H	0.589834	0.950043	0.108613
841	C	0.696236	0.888891	0.371034
842	N	0.642978	0.861312	0.370907
843	C	0.614443	0.808016	0.371041
844	N	0.642024	0.782339	0.370914
845	C	0.695319	0.8071	0.371037
846	N	0.720995	0.860357	0.370904
847	C	0.808651	0.613782	0.371071
848	N	0.861948	0.642289	0.370934
849	C	0.889553	0.695546	0.371061
850	N	0.861046	0.720334	0.370927
851	C	0.807794	0.694684	0.371061
852	N	0.783004	0.641389	0.370937
853	C	0.722732	0.778898	0.372291
854	C	0.699558	0.726769	0.388574
855	C	0.727508	0.698951	0.388671
856	C	0.779617	0.722119	0.372348
857	C	0.803726	0.775477	0.692977
858	C	0.776103	0.803037	0.692941
859	N	0.705728	0.652748	0.411244
860	C	0.659206	0.630883	0.432905
861	C	0.631444	0.658439	0.432869
862	N	0.653356	0.704951	0.411161
863	H	0.795311	0.840911	0.681791
864	H	0.841586	0.794688	0.681791
865	C	0.643065	0.583956	0.461007
866	C	0.613584	0.585337	0.503403
867	H	0.677235	0.581239	0.471177
868	H	0.617707	0.549342	0.441111
869	C	0.567462	0.593581	0.490061
870	H	0.640471	0.617258	0.525281
871	H	0.598946	0.548849	0.521952
872	C	0.585816	0.644367	0.462273
873	H	0.547811	0.595444	0.520351
874	H	0.539291	0.559946	0.470455
875	H	0.596719	0.676844	0.485502
876	H	0.553291	0.640465	0.441943
877	C	0.724441	0.944504	0.372274
878	C	0.77657	0.973462	0.388564
879	C	0.804389	0.529231	0.388668
880	C	0.781216	0.558173	0.372358
881	C	0.727861	0.528926	0.692987
882	C	0.700301	0.973743	0.692941
883	N	0.850589	0.553652	0.411241
884	C	0.872455	0.528992	0.432899
885	C	0.844902	0.973673	0.432855
886	N	0.798391	0.949076	0.411144
887	H	0.662424	0.955077	0.681798
888	H	0.708646	0.547573	0.681804
889	C	0.919381	0.559774	0.461
890	C	0.917993	0.528902	0.503396
891	H	0.922098	0.596657	0.471177
892	H	0.953998	0.569035	0.441107
893	C	0.909753	0.974542	0.490047
894	H	0.886068	0.523865	0.525271
895	H	0.95448	0.550751	0.521949
896	C	0.858973	0.942113	0.462253
897	H	0.907885	0.953022	0.520335
898	H	0.943395	0.98001	0.470445
899	H	0.826496	0.920534	0.485479
900	H	0.862881	0.913496	0.441916
901	C	0.558831	0.780605	0.372291
902	C	0.529874	0.803781	0.388571
903	C	0.974104	0.77583	0.388664
904	C	0.945163	0.723724	0.372334
905	C	0.97441	0.699609	0.692981
906	C	0.529596	0.727231	0.692944
907	N	0.949682	0.797608	0.411238
908	C	0.974339	0.844129	0.432905
909	C	0.529658	0.871892	0.432869
910	N	0.554257	0.84998	0.411157
911	H	0.548262	0.70802	0.681804
912	H	0.955766	0.66175	0.681798
913	C	0.94355	0.860267	0.461007
914	C	0.974416	0.889741	0.503406
915	H	0.906665	0.826096	0.471177
916	H	0.934295	0.885627	0.441117
917	C	0.528782	0.935866	0.490071
918	H	0.979452	0.86285	0.525281
919	H	0.952568	0.904376	0.521962
920	C	0.561215	0.917516	0.462277
921	H	0.550296	0.955511	0.520361
922	H	0.523316	0.96404	0.470469
923	H	0.582787	0.906611	0.485502
924	H	0.589834	0.950043	0.441946
925	C	0.696236	0.888891	0.704364
926	N	0.642978	0.861312	0.704241
927	C	0.614443	0.808016	0.704374
928	N	0.642024	0.782339	0.704247
929	C	0.695319	0.8071	0.704371
930	N	0.720995	0.860357	0.704237
931	C	0.808651	0.613782	0.704401
932	N	0.861948	0.642289	0.704267
933	C	0.889553	0.695546	0.704394
934	N	0.861046	0.720334	0.704261
935	C	0.807794	0.694684	0.704394
936	N	0.783004	0.641389	0.704271
937	C	0.722732	0.778898	0.705624
938	C	0.699558	0.726769	0.721908
939	C	0.727508	0.698951	0.722001
940	C	0.779617	0.722119	0.705678
941	C	0.803726	0.775477	0.026313
942	C	0.776103	0.803037	0.026274
943	N	0.705728	0.652748	0.744578
944	C	0.659206	0.630883	0.766239
945	C	0.631444	0.658439	0.766202
946	N	0.653356	0.704951	0.744495
947	H	0.795311	0.840911	0.015125
948	H	0.841586	0.794688	0.015124
949	C	0.643065	0.583956	0.794337
950	C	0.613584	0.585337	0.836737
951	H	0.677235	0.581239	0.804511
952	H	0.617707	0.549342	0.774444
953	C	0.567462	0.593581	0.823394
954	H	0.640471	0.617258	0.858615
955	H	0.598946	0.548849	0.855286
956	C	0.585816	0.644367	0.795607
957	H	0.547811	0.595444	0.853685
958	H	0.539291	0.559946	0.803789
959	H	0.596719	0.676844	0.818836
960	H	0.553291	0.640465	0.775273
961	C	0.724441	0.944504	0.705608
962	C	0.77657	0.973462	0.721898
963	C	0.804389	0.529231	0.722001
964	C	0.781216	0.558173	0.705691
965	C	0.727861	0.528926	0.026321
966	C	0.700301	0.973743	0.026276
967	N	0.850589	0.553652	0.744575
968	C	0.872455	0.528992	0.766232
969	C	0.844902	0.973673	0.766189
970	N	0.798391	0.949076	0.744478
971	H	0.662424	0.955077	0.01513
972	H	0.708646	0.547573	0.015139
973	C	0.919381	0.559774	0.794334
974	C	0.917993	0.528902	0.836727
975	H	0.922098	0.596657	0.804511
976	H	0.953998	0.569035	0.774441
977	C	0.909753	0.974542	0.823381
978	H	0.886068	0.523865	0.858605
979	H	0.95448	0.550751	0.855283
980	C	0.858973	0.942113	0.795584
981	H	0.907885	0.953022	0.853668
982	H	0.943395	0.98001	0.803779
983	H	0.826496	0.920534	0.818812
984	H	0.862881	0.913496	0.77525
985	C	0.558831	0.780605	0.705624
986	C	0.529874	0.803781	0.721904
987	C	0.974104	0.77583	0.721995
988	C	0.945163	0.723724	0.705665
989	C	0.97441	0.699609	0.026316
990	C	0.529596	0.727231	0.02628
991	N	0.949682	0.797608	0.744571
992	C	0.974339	0.844129	0.766239
993	C	0.529658	0.871892	0.766202
994	N	0.554257	0.84998	0.744491
995	H	0.548262	0.70802	0.015138
996	H	0.955766	0.66175	0.015132
997	C	0.94355	0.860267	0.79434
998	C	0.974416	0.889741	0.83674
999	H	0.906665	0.826096	0.804511
1000	H	0.934295	0.885627	0.774448
1001	C	0.528782	0.935866	0.823401
1002	H	0.979452	0.86285	0.858615
1003	H	0.952568	0.904376	0.855296
1004	C	0.561215	0.917516	0.795607
1005	H	0.550296	0.955511	0.853695
1006	H	0.523316	0.96404	0.803799
1007	H	0.582787	0.906611	0.818836
1008	H	0.589834	0.950043	0.77528
