data_C1152H576_2018-02-15_12:33:43
#******************************************
#
# CIF file created by Zeo++
# Zeo++ is an open source package to
# analyze microporous materials
#
#*******************************************

_cell_length_a		34.3561   
_cell_length_b		36.299   
_cell_length_c		34.3543   
_cell_angle_alpha		90   
_cell_angle_beta		90   
_cell_angle_gamma		90   

_symmetry_space_group_name_H-M		'P1'
_symmetry_Int_Tables_number		1
_symmetry_cell_setting		Orthorhombic

loop_
_symmetry_equiv_pos_as_xyz
'+x,+y,+z'

loop_
_atom_site_label
_atom_site_type_symbol
_atom_site_fract_x
_atom_site_fract_y
_atom_site_fract_z
1	C	0.151173	0.061549	0.089951
2	C	0.129486	0.088141	0.110346
3	C	0.107802	0.114728	0.08994
4	C	0.106918	0.11339	0.0488
5	C	0.129489	0.088125	0.026249
6	C	0.152084	0.062885	0.04881
7	H	0.090392	0.133048	0.035729
8	H	0.168559	0.043185	0.035747
9	H	0.129477	0.088141	0.140199
10	C	0.171499	0.033872	0.110361
11	C	0.21258	0.033586	0.110571
12	H	0.227538	0.054053	0.096439
13	C	0.087452	0.19968	0.148726
14	C	0.107757	0.17105	0.129516
15	C	0.087455	0.142401	0.110335
16	C	0.046373	0.142672	0.110532
17	C	0.025625	0.171016	0.129564
18	C	0.04637	0.199377	0.148573
19	H	0.031428	0.122199	0.096397
20	H	0.137598	0.171058	0.129506
21	C	0.129503	0.25393	0.148732
22	C	0.107798	0.227351	0.169129
23	C	0.106876	0.228705	0.210269
24	C	0.129485	0.253933	0.232827
25	H	0.090397	0.209005	0.223329
26	H	0.129507	0.25393	0.118879
27	H	0.031422	0.219834	0.162729
28	C	0.356458	0.061531	0.169128
29	C	0.378163	0.088108	0.148731
30	C	0.399882	0.114673	0.169133
31	C	0.400799	0.113316	0.210274
32	C	0.378183	0.088086	0.232827
33	C	0.355561	0.062866	0.210269
34	H	0.417294	0.132996	0.223344
35	H	0.339072	0.043179	0.223334
36	H	0.378154	0.088116	0.118878
37	C	0.336092	0.03387	0.148729
38	C	0.29501	0.033581	0.148593
39	H	0.280075	0.054043	0.162758
40	C	0.420231	0.142349	0.148739
41	C	0.399926	0.170983	0.129533
42	C	0.420225	0.199636	0.110354
43	C	0.461307	0.199362	0.110547
44	C	0.482057	0.171011	0.129568
45	C	0.461313	0.14265	0.148578
46	H	0.476262	0.122189	0.162727
47	H	0.370086	0.170976	0.129522
48	C	0.378189	0.253893	0.110345
49	C	0.399877	0.227302	0.089949
50	C	0.40077	0.228629	0.048808
51	C	0.378142	0.253846	0.026249
52	H	0.417256	0.20894	0.035744
53	H	0.378204	0.253907	0.140198
54	H	0.476253	0.21983	0.096403
55	C	0.648534	0.061549	0.089951
56	C	0.626849	0.088141	0.110346
57	C	0.605165	0.114728	0.08994
58	C	0.60428	0.11339	0.0488
59	C	0.626852	0.088125	0.026249
60	C	0.649445	0.062885	0.04881
61	H	0.587756	0.133048	0.035729
62	H	0.665922	0.043185	0.035747
63	H	0.626841	0.088141	0.140199
64	C	0.668862	0.033872	0.110361
65	C	0.709944	0.033586	0.110571
66	H	0.724899	0.054053	0.096439
67	C	0.584816	0.19968	0.148726
68	C	0.605121	0.17105	0.129516
69	C	0.584819	0.142401	0.110335
70	C	0.543738	0.142672	0.110532
71	C	0.522987	0.171016	0.129564
72	C	0.543732	0.199377	0.148573
73	H	0.528791	0.122199	0.096397
74	H	0.634961	0.171058	0.129506
75	C	0.626864	0.25393	0.148732
76	C	0.605162	0.227351	0.169129
77	C	0.604239	0.228705	0.210269
78	C	0.626846	0.253933	0.232827
79	H	0.587759	0.209005	0.223329
80	H	0.62687	0.25393	0.118879
81	H	0.528785	0.219834	0.162729
82	C	0.853819	0.061531	0.169128
83	C	0.875527	0.088108	0.148731
84	C	0.897247	0.114673	0.169133
85	C	0.898161	0.113316	0.210274
86	C	0.875545	0.088086	0.232827
87	C	0.852926	0.062866	0.210269
88	H	0.914656	0.132996	0.223344
89	H	0.836434	0.043179	0.223334
90	H	0.875518	0.088116	0.118878
91	C	0.833453	0.03387	0.148729
92	C	0.792372	0.033581	0.148593
93	H	0.777437	0.054043	0.162758
94	C	0.917593	0.142349	0.148739
95	C	0.897288	0.170983	0.129533
96	C	0.91759	0.199636	0.110354
97	C	0.958671	0.199362	0.110547
98	C	0.979419	0.171011	0.129568
99	C	0.958674	0.14265	0.148578
100	H	0.973623	0.122189	0.162727
101	H	0.867447	0.170976	0.129522
102	C	0.875553	0.253893	0.110345
103	C	0.897241	0.227302	0.089949
104	C	0.898132	0.228629	0.048808
105	C	0.875507	0.253846	0.026249
106	H	0.914621	0.20894	0.035744
107	H	0.875565	0.253907	0.140198
108	H	0.973615	0.21983	0.096403
109	C	0.15119	0.280517	0.169136
110	C	0.152098	0.279165	0.210276
111	H	0.168576	0.298862	0.223341
112	C	0.171535	0.308188	0.148735
113	C	0.233363	0.336805	0.129501
114	C	0.212616	0.308455	0.148526
115	H	0.227563	0.287989	0.162671
116	C	0.151185	0.393146	0.08995
117	C	0.152086	0.394482	0.048809
118	H	0.168579	0.374795	0.035745
119	C	0.151232	0.336841	0.12956
120	C	0.171533	0.365476	0.110353
121	C	0.212616	0.365167	0.110494
122	H	0.227562	0.385628	0.096345
123	H	0.121391	0.336849	0.129577
124	C	0.129467	0.419714	0.110345
125	C	0.107747	0.446277	0.089942
126	C	0.106857	0.444935	0.048802
127	C	0.129458	0.419695	0.026249
128	H	0.090311	0.464578	0.035731
129	H	0.129465	0.419717	0.140199
130	C	0.107692	0.502592	0.129534
131	C	0.087394	0.47395	0.110336
132	C	0.046312	0.474239	0.110501
133	C	0.025561	0.50259	0.129518
134	H	0.031368	0.45377	0.096359
135	H	0.137533	0.502592	0.129541
136	C	0.356467	0.280454	0.089941
137	C	0.355532	0.279079	0.048801
138	H	0.339026	0.298749	0.03573
139	C	0.356426	0.336761	0.129546
140	C	0.336121	0.30813	0.110336
141	C	0.295039	0.308435	0.110491
142	H	0.28009	0.28798	0.096335
143	H	0.386266	0.33675	0.129562
144	C	0.356469	0.393085	0.169127
145	C	0.355564	0.394419	0.210268
146	H	0.339093	0.374718	0.223332
147	C	0.336127	0.365415	0.148721
148	C	0.274295	0.3368	0.129495
149	C	0.295045	0.365151	0.148516
150	H	0.280099	0.385617	0.162663
151	C	0.378145	0.419684	0.148731
152	C	0.399827	0.446271	0.169135
153	C	0.400738	0.444919	0.210276
154	C	0.378151	0.419667	0.232827
155	H	0.417213	0.464616	0.223346
156	H	0.378142	0.419689	0.118877
157	C	0.42017	0.47395	0.148739
158	C	0.399862	0.502592	0.129551
159	C	0.481993	0.502587	0.129522
160	C	0.461251	0.474233	0.148547
161	H	0.476201	0.453767	0.162689
162	H	0.370022	0.50259	0.129558
163	C	0.648551	0.280517	0.169136
164	C	0.64946	0.279165	0.210276
165	H	0.66594	0.298862	0.223341
166	C	0.668897	0.308188	0.148735
167	C	0.730726	0.336805	0.129501
168	C	0.709979	0.308455	0.148526
169	H	0.724925	0.287989	0.162671
170	C	0.648549	0.393146	0.08995
171	C	0.649448	0.394482	0.048809
172	H	0.665943	0.374795	0.035745
173	C	0.648595	0.336841	0.12956
174	C	0.668897	0.365476	0.110353
175	C	0.709979	0.365167	0.110494
176	H	0.724925	0.385628	0.096345
177	H	0.618755	0.336849	0.129577
178	C	0.626829	0.419714	0.110345
179	C	0.605109	0.446277	0.089942
180	C	0.604219	0.444935	0.048802
181	C	0.62682	0.419695	0.026249
182	H	0.587674	0.464578	0.035731
183	H	0.626826	0.419717	0.140199
184	C	0.605054	0.502592	0.129534
185	C	0.584755	0.47395	0.110336
186	C	0.543673	0.474239	0.110501
187	C	0.522923	0.50259	0.129518
188	H	0.52873	0.45377	0.096359
189	H	0.634895	0.502592	0.129541
190	C	0.853828	0.280454	0.089941
191	C	0.852894	0.279079	0.048801
192	H	0.836387	0.298749	0.03573
193	C	0.85379	0.336761	0.129546
194	C	0.833485	0.30813	0.110336
195	C	0.792401	0.308435	0.110491
196	H	0.777451	0.28798	0.096335
197	H	0.883631	0.33675	0.129562
198	C	0.853831	0.393085	0.169127
199	C	0.852929	0.394419	0.210268
200	H	0.836454	0.374718	0.223332
201	C	0.833488	0.365415	0.148721
202	C	0.771656	0.3368	0.129495
203	C	0.792407	0.365151	0.148516
204	H	0.777463	0.385617	0.162663
205	C	0.875507	0.419684	0.148731
206	C	0.897191	0.446271	0.169135
207	C	0.8981	0.444919	0.210276
208	C	0.875513	0.419667	0.232827
209	H	0.914574	0.464616	0.223346
210	H	0.875504	0.419689	0.118877
211	C	0.917531	0.47395	0.148739
212	C	0.897223	0.502592	0.129551
213	C	0.979354	0.502587	0.129522
214	C	0.958613	0.474233	0.148547
215	H	0.973562	0.453767	0.162689
216	H	0.867383	0.50259	0.129558
217	C	0.129413	0.585495	0.148732
218	C	0.107726	0.558905	0.169128
219	C	0.106803	0.560255	0.210268
220	C	0.1294	0.585495	0.232827
221	H	0.090333	0.540549	0.223328
222	H	0.129417	0.585495	0.118878
223	C	0.087385	0.531232	0.148724
224	C	0.046304	0.530943	0.14854
225	H	0.031354	0.551406	0.162687
226	C	0.15109	0.612088	0.169136
227	C	0.152	0.610736	0.210276
228	H	0.168471	0.630439	0.223341
229	C	0.171432	0.639764	0.148735
230	C	0.23326	0.668379	0.129501
231	C	0.212514	0.640029	0.148525
232	H	0.227461	0.619563	0.162669
233	C	0.151084	0.72472	0.08995
234	C	0.129377	0.751299	0.110346
235	C	0.129372	0.751282	0.026249
236	C	0.151988	0.726059	0.048809
237	H	0.168474	0.706367	0.035745
238	H	0.129375	0.751302	0.140199
239	C	0.151129	0.668415	0.12956
240	C	0.171431	0.69705	0.110353
241	C	0.212513	0.696741	0.110496
242	H	0.22746	0.717204	0.096347
243	H	0.121289	0.668426	0.129577
244	C	0.378102	0.585476	0.110344
245	C	0.399804	0.558897	0.089949
246	C	0.400697	0.560228	0.048808
247	C	0.378058	0.585435	0.026249
248	H	0.417192	0.540544	0.035743
249	H	0.378113	0.58549	0.140198
250	C	0.420158	0.531232	0.110352
251	C	0.46124	0.530943	0.110514
252	H	0.476183	0.551406	0.096362
253	C	0.356368	0.612031	0.089941
254	C	0.355433	0.610656	0.048801
255	H	0.338921	0.630323	0.03573
256	C	0.356324	0.668335	0.129546
257	C	0.336019	0.639706	0.110336
258	C	0.294937	0.640012	0.11049
259	H	0.279988	0.619554	0.096334
260	H	0.386164	0.668327	0.129562
261	C	0.356368	0.724656	0.169127
262	C	0.378055	0.751249	0.148731
263	C	0.378067	0.751227	0.232827
264	C	0.355468	0.72599	0.210268
265	H	0.338988	0.706295	0.223331
266	H	0.378052	0.751255	0.118878
267	C	0.336025	0.696989	0.148721
268	C	0.274193	0.668374	0.129495
269	C	0.29494	0.696724	0.148517
270	H	0.279997	0.717191	0.162664
271	C	0.626777	0.585495	0.148732
272	C	0.605089	0.558905	0.169128
273	C	0.604166	0.560255	0.210268
274	C	0.626762	0.585495	0.232827
275	H	0.587695	0.540549	0.223328
276	H	0.62678	0.585495	0.118878
277	C	0.584746	0.531232	0.148724
278	C	0.543665	0.530943	0.14854
279	H	0.528715	0.551406	0.162687
280	C	0.648453	0.612088	0.169136
281	C	0.649364	0.610736	0.210276
282	H	0.665835	0.630439	0.223341
283	C	0.668795	0.639764	0.148735
284	C	0.730624	0.668379	0.129501
285	C	0.709877	0.640029	0.148525
286	H	0.724823	0.619563	0.162669
287	C	0.648447	0.72472	0.08995
288	C	0.626739	0.751299	0.110346
289	C	0.626736	0.751282	0.026249
290	C	0.649352	0.726059	0.048809
291	H	0.665838	0.706367	0.035745
292	H	0.626736	0.751302	0.140199
293	C	0.64849	0.668415	0.12956
294	C	0.668792	0.69705	0.110353
295	C	0.709877	0.696741	0.110496
296	H	0.724823	0.717204	0.096347
297	H	0.61865	0.668426	0.129577
298	C	0.875463	0.585476	0.110344
299	C	0.897168	0.558897	0.089949
300	C	0.898059	0.560228	0.048808
301	C	0.875422	0.585435	0.026249
302	H	0.914557	0.540544	0.035743
303	H	0.875478	0.58549	0.140198
304	C	0.917523	0.531232	0.110352
305	C	0.958604	0.530943	0.110514
306	H	0.973548	0.551406	0.096362
307	C	0.853729	0.612031	0.089941
308	C	0.852795	0.610656	0.048801
309	H	0.836282	0.630323	0.03573
310	C	0.853685	0.668335	0.129546
311	C	0.833383	0.639706	0.110336
312	C	0.792299	0.640012	0.11049
313	H	0.77735	0.619554	0.096334
314	H	0.883526	0.668327	0.129562
315	C	0.853732	0.724656	0.169127
316	C	0.875417	0.751249	0.148731
317	C	0.875428	0.751227	0.232827
318	C	0.85283	0.72599	0.210268
319	H	0.836349	0.706295	0.223331
320	H	0.875414	0.751255	0.118878
321	C	0.833386	0.696989	0.148721
322	C	0.771554	0.668374	0.129495
323	C	0.792305	0.696724	0.148517
324	H	0.777361	0.717191	0.162664
325	C	0.107674	0.777873	0.089942
326	C	0.106785	0.776534	0.048802
327	H	0.090246	0.796182	0.035731
328	H	0.031299	0.785347	0.0964
329	H	0.12134	0.99995	0.129507
330	C	0.15118	0.99995	0.12953
331	C	0.151102	0.943643	0.169137
332	C	0.129394	0.917072	0.148732
333	C	0.107671	0.890504	0.169126
334	C	0.106743	0.891859	0.210267
335	C	0.129369	0.917075	0.232827
336	C	0.152003	0.94229	0.210277
337	H	0.090252	0.87217	0.223327
338	H	0.168492	0.961977	0.223344
339	H	0.129404	0.917069	0.118879
340	C	0.171466	0.971308	0.148743
341	C	0.233311	0.999959	0.12961
342	C	0.212549	0.9716	0.148602
343	H	0.227486	0.951136	0.162764
344	C	0.087324	0.862834	0.148724
345	C	0.107628	0.834199	0.129517
346	C	0.087327	0.805548	0.110338
347	C	0.046245	0.805821	0.110533
348	C	0.025497	0.834166	0.129564
349	C	0.046242	0.862528	0.148571
350	H	0.031293	0.882986	0.162726
351	H	0.137468	0.834208	0.129506
352	C	0.399754	0.777826	0.169136
353	C	0.400665	0.77647	0.210276
354	H	0.417149	0.79616	0.223346
355	H	0.476131	0.785341	0.16273
356	C	0.274244	0.999945	0.129604
357	C	0.356379	0.943627	0.089941
358	C	0.378081	0.91705	0.110344
359	C	0.399749	0.890449	0.089947
360	C	0.400636	0.891771	0.048806
361	C	0.378026	0.917003	0.026249
362	C	0.355436	0.942252	0.048802
363	H	0.417111	0.872074	0.035742
364	H	0.338938	0.961933	0.035733
365	H	0.378102	0.917067	0.140198
366	C	0.356376	0.999953	0.129516
367	C	0.336054	0.971311	0.110343
368	C	0.294972	0.971592	0.110567
369	H	0.280012	0.951131	0.096428
370	H	0.386217	0.999948	0.129492
371	C	0.4201	0.805502	0.148741
372	C	0.399795	0.834133	0.129533
373	C	0.420097	0.862781	0.110351
374	C	0.461179	0.862511	0.110545
375	C	0.481929	0.834161	0.129568
376	C	0.461184	0.805802	0.148579
377	H	0.476122	0.882977	0.0964
378	H	0.369955	0.834125	0.129522
379	C	0.605037	0.777873	0.089942
380	C	0.604149	0.776534	0.048802
381	H	0.58761	0.796182	0.035731
382	H	0.528663	0.785347	0.0964
383	H	0.618702	0.99995	0.129507
384	C	0.648543	0.99995	0.12953
385	C	0.648464	0.943643	0.169137
386	C	0.626756	0.917072	0.148732
387	C	0.605034	0.890504	0.169126
388	C	0.604105	0.891859	0.210267
389	C	0.62673	0.917075	0.232827
390	C	0.649366	0.94229	0.210277
391	H	0.587616	0.87217	0.223327
392	H	0.665856	0.961977	0.223344
393	H	0.626765	0.917069	0.118879
394	C	0.66883	0.971308	0.148743
395	C	0.730674	0.999959	0.12961
396	C	0.709912	0.9716	0.148602
397	H	0.724849	0.951136	0.162764
398	C	0.584685	0.862834	0.148724
399	C	0.60499	0.834199	0.129517
400	C	0.584688	0.805548	0.110338
401	C	0.543607	0.805821	0.110533
402	C	0.522859	0.834166	0.129564
403	C	0.543604	0.862528	0.148571
404	H	0.528657	0.882986	0.162726
405	H	0.63483	0.834208	0.129506
406	C	0.897119	0.777826	0.169136
407	C	0.89803	0.77647	0.210276
408	H	0.91451	0.79616	0.223346
409	H	0.973495	0.785341	0.16273
410	C	0.771607	0.999945	0.129604
411	C	0.853741	0.943627	0.089941
412	C	0.875443	0.91705	0.110344
413	C	0.897113	0.890449	0.089947
414	C	0.897998	0.891771	0.048806
415	C	0.87539	0.917003	0.026249
416	C	0.852798	0.942252	0.048802
417	H	0.914475	0.872074	0.035742
418	H	0.836303	0.961933	0.035733
419	H	0.875463	0.917067	0.140198
420	C	0.853738	0.999953	0.129516
421	C	0.833415	0.971311	0.110343
422	C	0.792334	0.971592	0.110567
423	H	0.777376	0.951131	0.096428
424	H	0.883578	0.999948	0.129492
425	C	0.917464	0.805502	0.148741
426	C	0.897159	0.834133	0.129533
427	C	0.917462	0.862781	0.110351
428	C	0.958543	0.862511	0.110545
429	C	0.97929	0.834161	0.129568
430	C	0.958546	0.805802	0.148579
431	H	0.973487	0.882977	0.0964
432	H	0.867319	0.834125	0.129522
433	C	0.15116	0.061526	0.417811
434	C	0.129474	0.088116	0.397412
435	C	0.107795	0.114709	0.417811
436	C	0.106916	0.113383	0.458953
437	C	0.129487	0.088121	0.481509
438	C	0.15208	0.062878	0.458953
439	H	0.090393	0.133045	0.47202
440	H	0.168544	0.043167	0.472014
441	H	0.129462	0.088107	0.367558
442	C	0.171487	0.033846	0.397409
443	C	0.212568	0.033569	0.39719
444	H	0.227524	0.054035	0.411326
445	C	0.087441	0.199661	0.359021
446	C	0.107747	0.171027	0.378226
447	C	0.087447	0.142378	0.397409
448	C	0.046366	0.142655	0.397225
449	C	0.025616	0.171002	0.378197
450	C	0.046359	0.199361	0.359184
451	H	0.031422	0.122185	0.411363
452	H	0.137587	0.171034	0.378232
453	C	0.129489	0.253911	0.359026
454	C	0.107784	0.227336	0.338624
455	C	0.106895	0.228676	0.297482
456	C	0.129487	0.253923	0.274929
457	H	0.090354	0.209029	0.284413
458	H	0.129483	0.253912	0.38888
459	H	0.031409	0.219821	0.345031
460	C	0.35644	0.061518	0.338624
461	C	0.378154	0.088087	0.359029
462	C	0.399882	0.114648	0.338633
463	C	0.400782	0.113312	0.297494
464	C	0.37818	0.088081	0.27493
465	C	0.35557	0.062848	0.297482
466	H	0.417326	0.132959	0.284428
467	H	0.339031	0.0432	0.284413
468	H	0.37814	0.088091	0.388883
469	C	0.336077	0.033853	0.359018
470	C	0.294996	0.033564	0.359163
471	H	0.280058	0.054026	0.344999
472	C	0.420225	0.142325	0.359035
473	C	0.399917	0.170961	0.378232
474	C	0.420214	0.199615	0.397412
475	C	0.461298	0.199343	0.397222
476	C	0.482048	0.170995	0.378197
477	C	0.461307	0.142632	0.359189
478	H	0.476256	0.122169	0.345046
479	H	0.370077	0.170952	0.378241
480	C	0.378177	0.253874	0.397415
481	C	0.399865	0.227284	0.417811
482	C	0.400764	0.228623	0.458953
483	C	0.378142	0.253842	0.481509
484	H	0.417242	0.208923	0.472014
485	H	0.378189	0.253882	0.367561
486	H	0.476241	0.219816	0.411358
487	C	0.648522	0.061526	0.417811
488	C	0.626838	0.088116	0.397412
489	C	0.605159	0.114709	0.417811
490	C	0.60428	0.113383	0.458953
491	C	0.626849	0.088121	0.481509
492	C	0.649442	0.062878	0.458953
493	H	0.587756	0.133045	0.47202
494	H	0.665908	0.043167	0.472014
495	H	0.626823	0.088107	0.367558
496	C	0.668851	0.033846	0.397409
497	C	0.709932	0.033569	0.39719
498	H	0.724887	0.054035	0.411326
499	C	0.584804	0.199661	0.359021
500	C	0.605109	0.171027	0.378226
501	C	0.58481	0.142378	0.397409
502	C	0.543729	0.142655	0.397225
503	C	0.522978	0.171002	0.378197
504	C	0.54372	0.199361	0.359184
505	H	0.528785	0.122185	0.411363
506	H	0.63495	0.171034	0.378232
507	C	0.626852	0.253911	0.359026
508	C	0.605147	0.227336	0.338624
509	C	0.604257	0.228676	0.297482
510	C	0.626849	0.253923	0.274929
511	H	0.587718	0.209029	0.284413
512	H	0.626846	0.253912	0.38888
513	H	0.528771	0.219821	0.345031
514	C	0.853805	0.061518	0.338624
515	C	0.875516	0.088087	0.359029
516	C	0.897247	0.114648	0.338633
517	C	0.898143	0.113312	0.297494
518	C	0.875542	0.088081	0.27493
519	C	0.852932	0.062848	0.297482
520	H	0.914691	0.132959	0.284428
521	H	0.836393	0.0432	0.284413
522	H	0.875504	0.088091	0.388883
523	C	0.833439	0.033853	0.359018
524	C	0.792357	0.033564	0.359163
525	H	0.777419	0.054026	0.344999
526	C	0.917587	0.142325	0.359035
527	C	0.897279	0.170961	0.378232
528	C	0.917578	0.199615	0.397412
529	C	0.958659	0.199343	0.397222
530	C	0.97941	0.170995	0.378197
531	C	0.958668	0.142632	0.359189
532	H	0.97362	0.122169	0.345046
533	H	0.867438	0.170952	0.378241
534	C	0.875542	0.253874	0.397415
535	C	0.897229	0.227284	0.417811
536	C	0.898129	0.228623	0.458953
537	C	0.875504	0.253842	0.481509
538	H	0.914606	0.208923	0.472014
539	H	0.87555	0.253882	0.367561
540	H	0.973603	0.219816	0.411358
541	C	0.151186	0.280493	0.338627
542	C	0.152102	0.279145	0.297488
543	H	0.16858	0.298848	0.284428
544	C	0.171528	0.308166	0.359032
545	C	0.233352	0.336786	0.378264
546	C	0.212609	0.308438	0.359236
547	H	0.227557	0.287969	0.345095
548	C	0.151172	0.393121	0.417814
549	C	0.152083	0.394474	0.458953
550	H	0.168564	0.374779	0.472017
551	C	0.151221	0.336814	0.378209
552	C	0.171521	0.365451	0.397415
553	C	0.212604	0.365148	0.397266
554	H	0.227549	0.385611	0.411419
555	H	0.12138	0.336819	0.378194
556	C	0.129455	0.419689	0.397412
557	C	0.10774	0.44626	0.417811
558	C	0.106855	0.444927	0.45895
559	C	0.129456	0.419689	0.481509
560	H	0.090312	0.464575	0.47202
561	H	0.129449	0.419684	0.367558
562	C	0.107682	0.502568	0.378206
563	C	0.087386	0.473928	0.397409
564	C	0.046304	0.474222	0.397254
565	C	0.025552	0.502576	0.378244
566	H	0.031361	0.453754	0.411404
567	H	0.137522	0.502568	0.378197
568	C	0.356461	0.28044	0.417814
569	C	0.355526	0.279068	0.458953
570	H	0.339034	0.298755	0.472017
571	C	0.356414	0.336742	0.378197
572	C	0.336115	0.308116	0.397415
573	C	0.295031	0.308419	0.397266
574	H	0.280084	0.287964	0.411427
575	H	0.386255	0.336734	0.37818
576	C	0.356452	0.393071	0.338624
577	C	0.355573	0.394402	0.297485
578	H	0.339052	0.374738	0.284416
579	C	0.336112	0.365398	0.359026
580	C	0.274284	0.336783	0.378264
581	C	0.295031	0.365134	0.359239
582	H	0.280083	0.3856	0.345095
583	C	0.378134	0.419662	0.359029
584	C	0.399827	0.446246	0.338633
585	C	0.400721	0.444916	0.297491
586	C	0.378148	0.419662	0.27493
587	H	0.417248	0.46458	0.284427
588	H	0.378128	0.419664	0.388883
589	C	0.420161	0.473925	0.359035
590	C	0.39985	0.50257	0.378215
591	C	0.481984	0.50257	0.378244
592	C	0.461243	0.474214	0.359218
593	H	0.476195	0.453748	0.345083
594	H	0.37001	0.502568	0.378206
595	C	0.648549	0.280493	0.338627
596	C	0.649465	0.279145	0.297488
597	H	0.665943	0.298848	0.284428
598	C	0.668891	0.308166	0.359032
599	C	0.730714	0.336786	0.378264
600	C	0.709973	0.308438	0.359236
601	H	0.724919	0.287969	0.345095
602	C	0.648534	0.393121	0.417814
603	C	0.649445	0.394474	0.458953
604	H	0.665925	0.374779	0.472017
605	C	0.648584	0.336814	0.378209
606	C	0.668883	0.365451	0.397415
607	C	0.709967	0.365148	0.397266
608	H	0.724911	0.385611	0.411419
609	H	0.618743	0.336819	0.378194
610	C	0.626817	0.419689	0.397412
611	C	0.605104	0.44626	0.417811
612	C	0.604219	0.444927	0.45895
613	C	0.626817	0.419689	0.481509
614	H	0.587674	0.464575	0.47202
615	H	0.626812	0.419684	0.367558
616	C	0.605045	0.502568	0.378206
617	C	0.584749	0.473928	0.397409
618	C	0.543668	0.474222	0.397254
619	C	0.522914	0.502576	0.378244
620	H	0.528724	0.453754	0.411404
621	H	0.634886	0.502568	0.378197
622	C	0.853822	0.28044	0.417814
623	C	0.852888	0.279068	0.458953
624	H	0.836396	0.298755	0.472017
625	C	0.853779	0.336742	0.378197
626	C	0.833476	0.308116	0.397415
627	C	0.792395	0.308419	0.397266
628	H	0.777446	0.287964	0.411427
629	H	0.883619	0.336734	0.37818
630	C	0.853816	0.393071	0.338624
631	C	0.852934	0.394402	0.297485
632	H	0.836413	0.374738	0.284416
633	C	0.833474	0.365398	0.359026
634	C	0.771648	0.336783	0.378264
635	C	0.792392	0.365134	0.359239
636	H	0.777446	0.3856	0.345095
637	C	0.875495	0.419662	0.359029
638	C	0.897191	0.446246	0.338633
639	C	0.898082	0.444916	0.297491
640	C	0.875513	0.419662	0.27493
641	H	0.914609	0.46458	0.284427
642	H	0.875489	0.419664	0.388883
643	C	0.917526	0.473925	0.359035
644	C	0.897215	0.50257	0.378215
645	C	0.979346	0.50257	0.378244
646	C	0.958607	0.474214	0.359218
647	H	0.973559	0.453748	0.345083
648	H	0.867374	0.502568	0.378206
649	C	0.129399	0.585476	0.359026
650	C	0.107711	0.558889	0.338624
651	C	0.106822	0.560228	0.297482
652	C	0.129402	0.585484	0.274929
653	H	0.09029	0.540574	0.284414
654	H	0.129393	0.585479	0.38888
655	C	0.087373	0.531213	0.359023
656	C	0.046292	0.530929	0.359216
657	H	0.031341	0.551393	0.345075
658	C	0.151086	0.612066	0.338627
659	C	0.152004	0.610719	0.297488
660	H	0.168475	0.630425	0.284428
661	C	0.171425	0.639739	0.359032
662	C	0.23325	0.668363	0.378264
663	C	0.212507	0.640012	0.359236
664	H	0.227455	0.619543	0.345098
665	C	0.151072	0.724698	0.417814
666	C	0.129365	0.751274	0.397412
667	C	0.12937	0.75128	0.481509
668	C	0.151985	0.72605	0.458953
669	H	0.168459	0.70635	0.472017
670	H	0.129359	0.751266	0.367558
671	C	0.151118	0.668388	0.378209
672	C	0.171419	0.697025	0.397415
673	C	0.212501	0.696724	0.397266
674	H	0.227447	0.717185	0.411419
675	H	0.121278	0.668396	0.378194
676	C	0.37809	0.585457	0.397415
677	C	0.399792	0.55888	0.417814
678	C	0.400692	0.560222	0.458953
679	C	0.378055	0.585429	0.481509
680	H	0.417178	0.540527	0.472014
681	H	0.378099	0.585465	0.367561
682	C	0.420147	0.531213	0.397412
683	C	0.461231	0.530924	0.397254
684	H	0.476172	0.551393	0.411398
685	C	0.356359	0.612017	0.417814
686	C	0.355427	0.610648	0.458953
687	H	0.33893	0.630329	0.472017
688	C	0.356312	0.668319	0.378197
689	C	0.33601	0.63969	0.397415
690	C	0.294929	0.639996	0.397269
691	H	0.279982	0.61954	0.411427
692	H	0.386153	0.668308	0.37818
693	C	0.356353	0.724645	0.338624
694	C	0.378043	0.751227	0.359029
695	C	0.378064	0.751222	0.27493
696	C	0.355474	0.725973	0.297485
697	H	0.338947	0.706314	0.284416
698	H	0.378038	0.75123	0.388883
699	C	0.336007	0.696972	0.359026
700	C	0.274182	0.66836	0.378264
701	C	0.294929	0.696708	0.359239
702	H	0.279981	0.717174	0.345092
703	C	0.626762	0.585476	0.359026
704	C	0.605074	0.558889	0.338624
705	C	0.604184	0.560228	0.297482
706	C	0.626765	0.585484	0.274929
707	H	0.587654	0.540574	0.284414
708	H	0.626756	0.585479	0.38888
709	C	0.584735	0.531213	0.359023
710	C	0.543656	0.530929	0.359216
711	H	0.528704	0.551393	0.345075
712	C	0.64845	0.612066	0.338627
713	C	0.649366	0.610719	0.297488
714	H	0.665838	0.630425	0.284428
715	C	0.668787	0.639739	0.359032
716	C	0.730613	0.668363	0.378264
717	C	0.709868	0.640012	0.359236
718	H	0.724817	0.619543	0.345098
719	C	0.648435	0.724698	0.417814
720	C	0.626727	0.751274	0.397412
721	C	0.626733	0.75128	0.481509
722	C	0.649349	0.72605	0.458953
723	H	0.665821	0.70635	0.472017
724	H	0.626721	0.751266	0.367558
725	C	0.648482	0.668388	0.378209
726	C	0.668781	0.697025	0.397415
727	C	0.709865	0.696724	0.397266
728	H	0.724809	0.717185	0.411419
729	H	0.618641	0.668396	0.378194
730	C	0.875452	0.585457	0.397415
731	C	0.897157	0.55888	0.417814
732	C	0.898056	0.560222	0.458953
733	C	0.87542	0.585429	0.481509
734	H	0.914542	0.540527	0.472014
735	H	0.87546	0.585465	0.367561
736	C	0.917511	0.531213	0.397412
737	C	0.958593	0.530924	0.397254
738	H	0.973533	0.551393	0.411398
739	C	0.853723	0.612017	0.417814
740	C	0.852792	0.610648	0.458953
741	H	0.836291	0.630329	0.472017
742	C	0.853674	0.668319	0.378197
743	C	0.833375	0.63969	0.397415
744	C	0.79229	0.639996	0.397269
745	H	0.777344	0.61954	0.411427
746	H	0.883514	0.668308	0.37818
747	C	0.853714	0.724645	0.338624
748	C	0.875405	0.751227	0.359029
749	C	0.875425	0.751222	0.27493
750	C	0.852838	0.725973	0.297485
751	H	0.836309	0.706314	0.284416
752	H	0.875399	0.75123	0.388883
753	C	0.833372	0.696972	0.359026
754	C	0.771546	0.66836	0.378264
755	C	0.79229	0.696708	0.359239
756	H	0.777344	0.717174	0.345092
757	C	0.107667	0.777856	0.417811
758	C	0.106783	0.776526	0.45895
759	H	0.090248	0.796179	0.472017
760	H	0.031293	0.785333	0.41136
761	C	0.15117	0.999923	0.378241
762	H	0.121329	0.99992	0.378264
763	C	0.151098	0.943621	0.338627
764	C	0.129379	0.917053	0.359026
765	C	0.107657	0.89049	0.338627
766	C	0.106762	0.891832	0.297485
767	C	0.129371	0.917064	0.27493
768	C	0.152007	0.942271	0.297488
769	H	0.090209	0.872195	0.284415
770	H	0.168496	0.961963	0.284426
771	H	0.12938	0.917053	0.38888
772	C	0.17146	0.971286	0.359023
773	C	0.233301	0.999939	0.378154
774	C	0.212542	0.97158	0.35916
775	H	0.227479	0.951117	0.345002
776	C	0.087312	0.862812	0.359023
777	C	0.107617	0.834177	0.378226
778	C	0.087319	0.805524	0.397406
779	C	0.046237	0.805805	0.397222
780	C	0.025488	0.834152	0.378197
781	C	0.04623	0.862511	0.359186
782	H	0.031281	0.882972	0.345034
783	H	0.137458	0.834183	0.378232
784	C	0.399754	0.777801	0.33863
785	C	0.400648	0.776468	0.297491
786	H	0.417184	0.796124	0.284427
787	H	0.476128	0.785319	0.345043
788	C	0.274233	0.999928	0.378156
789	C	0.35637	0.943613	0.417814
790	C	0.37807	0.917031	0.397415
791	C	0.399737	0.890429	0.417814
792	C	0.400633	0.891766	0.458956
793	C	0.378023	0.917	0.481509
794	C	0.35543	0.942244	0.458953
795	H	0.417096	0.872057	0.472017
796	H	0.33895	0.961938	0.472014
797	H	0.378087	0.917042	0.367561
798	C	0.356365	0.999934	0.378226
799	C	0.336045	0.971294	0.397409
800	C	0.294964	0.971575	0.39719
801	H	0.280006	0.951117	0.411334
802	H	0.386205	0.999931	0.37825
803	C	0.420094	0.805477	0.359032
804	C	0.399786	0.834111	0.378232
805	C	0.420086	0.862762	0.397415
806	C	0.461167	0.862492	0.397222
807	C	0.48192	0.834144	0.378197
808	C	0.461179	0.805783	0.359186
809	H	0.476111	0.882964	0.41136
810	H	0.369946	0.8341	0.378241
811	C	0.605031	0.777856	0.417811
812	C	0.604146	0.776526	0.45895
813	H	0.58761	0.796179	0.472017
814	H	0.528654	0.785333	0.41136
815	C	0.648531	0.999923	0.378241
816	H	0.618691	0.99992	0.378264
817	C	0.648461	0.943621	0.338627
818	C	0.626742	0.917053	0.359026
819	C	0.605019	0.89049	0.338627
820	C	0.604126	0.891832	0.297485
821	C	0.626733	0.917064	0.27493
822	C	0.649369	0.942271	0.297488
823	H	0.587573	0.872195	0.284415
824	H	0.665858	0.961963	0.284426
825	H	0.626742	0.917053	0.38888
826	C	0.668822	0.971286	0.359023
827	C	0.730665	0.999939	0.378154
828	C	0.709903	0.97158	0.35916
829	H	0.724841	0.951117	0.345002
830	C	0.584673	0.862812	0.359023
831	C	0.604978	0.834177	0.378226
832	C	0.584682	0.805524	0.397406
833	C	0.543601	0.805805	0.397222
834	C	0.52285	0.834152	0.378197
835	C	0.543592	0.862511	0.359186
836	H	0.528643	0.882972	0.345034
837	H	0.634819	0.834183	0.378232
838	C	0.897119	0.777801	0.33863
839	C	0.898012	0.776468	0.297491
840	H	0.914545	0.796124	0.284427
841	H	0.973489	0.785319	0.345043
842	C	0.771595	0.999928	0.378156
843	C	0.853735	0.943613	0.417814
844	C	0.875431	0.917031	0.397415
845	C	0.897101	0.890429	0.417814
846	C	0.897995	0.891766	0.458956
847	C	0.875387	0.917	0.481509
848	C	0.852795	0.942244	0.458953
849	H	0.914461	0.872057	0.472017
850	H	0.836311	0.961938	0.472014
851	H	0.875449	0.917042	0.367561
852	C	0.853726	0.999934	0.378226
853	C	0.833407	0.971294	0.397409
854	C	0.792328	0.971575	0.39719
855	H	0.77737	0.951117	0.411334
856	H	0.883567	0.999931	0.37825
857	C	0.917459	0.805477	0.359032
858	C	0.897151	0.834111	0.378232
859	C	0.91745	0.862762	0.397415
860	C	0.958531	0.862492	0.397222
861	C	0.979282	0.834144	0.378197
862	C	0.95854	0.805783	0.359186
863	H	0.973475	0.882964	0.41136
864	H	0.86731	0.8341	0.378241
865	C	0.15112	0.061491	0.587309
866	C	0.129413	0.088065	0.607708
867	C	0.107749	0.11467	0.587309
868	C	0.106897	0.113365	0.546167
869	C	0.129478	0.088112	0.523611
870	C	0.152062	0.06286	0.546167
871	H	0.090385	0.133036	0.533101
872	H	0.168552	0.043173	0.533101
873	H	0.129385	0.088047	0.637562
874	C	0.171445	0.033808	0.607714
875	C	0.212526	0.033519	0.607924
876	H	0.227485	0.053984	0.593792
877	C	0.087394	0.199623	0.646088
878	C	0.107701	0.170993	0.626879
879	C	0.0874	0.142338	0.607708
880	C	0.046319	0.142605	0.607906
881	C	0.025569	0.170953	0.626929
882	C	0.046312	0.199317	0.645934
883	H	0.031376	0.12213	0.593771
884	H	0.137542	0.171003	0.626868
885	C	0.129442	0.253874	0.646094
886	C	0.107739	0.227294	0.66649
887	C	0.106819	0.228645	0.707632
888	C	0.12943	0.253873	0.730191
889	H	0.090343	0.208945	0.72069
890	H	0.129445	0.253876	0.61624
891	H	0.031363	0.219775	0.660086
892	C	0.356397	0.061474	0.66649
893	C	0.378102	0.088053	0.646094
894	C	0.399824	0.114616	0.666496
895	C	0.400741	0.113256	0.707638
896	C	0.378128	0.088026	0.730188
897	C	0.355506	0.062806	0.707632
898	H	0.417239	0.132935	0.720707
899	H	0.339017	0.043119	0.720696
900	H	0.378093	0.088062	0.61624
901	C	0.336033	0.033813	0.646091
902	C	0.294952	0.033521	0.645954
903	H	0.280015	0.053984	0.660115
904	C	0.420173	0.142292	0.646103
905	C	0.399871	0.170926	0.626894
906	C	0.420173	0.199572	0.607706
907	C	0.461254	0.199295	0.607898
908	C	0.481999	0.170947	0.626929
909	C	0.461254	0.14259	0.645942
910	H	0.476201	0.12213	0.660095
911	H	0.37003	0.170921	0.626885
912	C	0.378116	0.253817	0.607708
913	C	0.399824	0.227244	0.587306
914	C	0.400747	0.228604	0.546167
915	C	0.378134	0.253833	0.523611
916	H	0.417251	0.208928	0.533098
917	H	0.37811	0.253813	0.637562
918	H	0.476201	0.219761	0.593754
919	C	0.648482	0.061491	0.587309
920	C	0.626774	0.088065	0.607708
921	C	0.605112	0.11467	0.587309
922	C	0.60426	0.113365	0.546167
923	C	0.626841	0.088112	0.523611
924	C	0.649425	0.06286	0.546167
925	H	0.587747	0.133036	0.533101
926	H	0.665914	0.043173	0.533101
927	H	0.626748	0.088047	0.637562
928	C	0.668807	0.033808	0.607714
929	C	0.709888	0.033519	0.607924
930	H	0.724849	0.053984	0.593792
931	C	0.584758	0.199623	0.646088
932	C	0.605063	0.170993	0.626879
933	C	0.584764	0.142338	0.607708
934	C	0.543682	0.142605	0.607906
935	C	0.522932	0.170953	0.626929
936	C	0.543673	0.199317	0.645934
937	H	0.528739	0.12213	0.593771
938	H	0.634903	0.171003	0.626868
939	C	0.626806	0.253874	0.646094
940	C	0.605101	0.227294	0.66649
941	C	0.604181	0.228645	0.707632
942	C	0.626791	0.253873	0.730191
943	H	0.587706	0.208945	0.72069
944	H	0.626809	0.253876	0.61624
945	H	0.528724	0.219775	0.660086
946	C	0.853761	0.061474	0.66649
947	C	0.875466	0.088053	0.646094
948	C	0.897186	0.114616	0.666496
949	C	0.898105	0.113256	0.707638
950	C	0.875489	0.088026	0.730188
951	C	0.852867	0.062806	0.707632
952	H	0.9146	0.132935	0.720707
953	H	0.836378	0.043119	0.720696
954	H	0.875457	0.088062	0.61624
955	C	0.833395	0.033813	0.646091
956	C	0.792313	0.033521	0.645954
957	H	0.777379	0.053984	0.660115
958	C	0.917534	0.142292	0.646103
959	C	0.897232	0.170926	0.626894
960	C	0.917534	0.199572	0.607706
961	C	0.958616	0.199295	0.607898
962	C	0.979363	0.170947	0.626929
963	C	0.958616	0.14259	0.645942
964	H	0.973565	0.12213	0.660095
965	H	0.867392	0.170921	0.626885
966	C	0.875478	0.253817	0.607708
967	C	0.897189	0.227244	0.587306
968	C	0.898111	0.228604	0.546167
969	C	0.875495	0.253833	0.523611
970	H	0.914612	0.208928	0.533098
971	H	0.875475	0.253813	0.637562
972	H	0.973562	0.219761	0.593754
973	C	0.15113	0.28046	0.666499
974	C	0.152041	0.279107	0.707638
975	H	0.168521	0.298802	0.720705
976	C	0.171477	0.308132	0.646097
977	C	0.233306	0.336742	0.626859
978	C	0.212558	0.308394	0.64589
979	H	0.227504	0.287931	0.660037
980	C	0.151132	0.393088	0.587306
981	C	0.152065	0.394454	0.546167
982	H	0.168572	0.374784	0.533101
983	C	0.151176	0.336783	0.62692
984	C	0.171479	0.365412	0.607706
985	C	0.212561	0.365098	0.607845
986	H	0.22751	0.385559	0.593696
987	H	0.121335	0.336794	0.62694
988	C	0.129393	0.41964	0.607708
989	C	0.107695	0.446219	0.587309
990	C	0.106836	0.44491	0.546167
991	C	0.129447	0.419681	0.523611
992	H	0.090304	0.464567	0.533101
993	H	0.129372	0.419623	0.637562
994	C	0.107636	0.502535	0.6269
995	C	0.087339	0.473886	0.607708
996	C	0.046257	0.47417	0.607874
997	C	0.025505	0.502526	0.626885
998	H	0.031315	0.453701	0.593734
999	H	0.137477	0.502537	0.626903
1000	C	0.356414	0.280396	0.587309
1001	C	0.355509	0.279055	0.546167
1002	H	0.339017	0.298738	0.533101
1003	C	0.35637	0.336703	0.626911
1004	C	0.336068	0.308066	0.607708
1005	C	0.294984	0.308369	0.607866
1006	H	0.280037	0.287912	0.59371
1007	H	0.386211	0.336695	0.626926
1008	C	0.356408	0.393027	0.66649
1009	C	0.355509	0.394361	0.707629
1010	H	0.339037	0.374658	0.720693
1011	C	0.336068	0.365357	0.646085
1012	C	0.274239	0.336737	0.626859
1013	C	0.294987	0.36509	0.645878
1014	H	0.28004	0.385556	0.660022
1015	C	0.378084	0.419629	0.646094
1016	C	0.399769	0.446216	0.666499
1017	C	0.400683	0.444861	0.707638
1018	C	0.378096	0.419607	0.730191
1019	H	0.417157	0.464555	0.720707
1020	H	0.378081	0.419634	0.61624
1021	C	0.420112	0.473892	0.646103
1022	C	0.399804	0.502535	0.626914
1023	C	0.481935	0.502523	0.626882
1024	C	0.461193	0.474173	0.64591
1025	H	0.476143	0.453709	0.660054
1026	H	0.369963	0.502535	0.62692
1027	C	0.648493	0.28046	0.666499
1028	C	0.649404	0.279107	0.707638
1029	H	0.665885	0.298802	0.720705
1030	C	0.668839	0.308132	0.646097
1031	C	0.730668	0.336742	0.626859
1032	C	0.709921	0.308394	0.64589
1033	H	0.724867	0.287931	0.660037
1034	C	0.648493	0.393088	0.587306
1035	C	0.649428	0.394454	0.546167
1036	H	0.665934	0.374784	0.533101
1037	C	0.648537	0.336783	0.62692
1038	C	0.668842	0.365412	0.607706
1039	C	0.709923	0.365098	0.607845
1040	H	0.724873	0.385559	0.593696
1041	H	0.618697	0.336794	0.62694
1042	C	0.626756	0.41964	0.607708
1043	C	0.605057	0.446219	0.587309
1044	C	0.604198	0.44491	0.546167
1045	C	0.626809	0.419681	0.523611
1046	H	0.587666	0.464567	0.533101
1047	H	0.626736	0.419623	0.637562
1048	C	0.604999	0.502535	0.6269
1049	C	0.584703	0.473886	0.607708
1050	C	0.543621	0.47417	0.607874
1051	C	0.522868	0.502526	0.626885
1052	H	0.528678	0.453701	0.593734
1053	H	0.634839	0.502537	0.626903
1054	C	0.853776	0.280396	0.587309
1055	C	0.852873	0.279055	0.546167
1056	H	0.836381	0.298738	0.533101
1057	C	0.853732	0.336703	0.626911
1058	C	0.83343	0.308066	0.607708
1059	C	0.792348	0.308369	0.607866
1060	H	0.777399	0.287912	0.59371
1061	H	0.883572	0.336695	0.626926
1062	C	0.853773	0.393027	0.66649
1063	C	0.85287	0.394361	0.707629
1064	H	0.836402	0.374658	0.720693
1065	C	0.83343	0.365357	0.646085
1066	C	0.771601	0.336737	0.626859
1067	C	0.792348	0.36509	0.645878
1068	H	0.777402	0.385556	0.660022
1069	C	0.875446	0.419629	0.646094
1070	C	0.89713	0.446216	0.666499
1071	C	0.898044	0.444861	0.707638
1072	C	0.875457	0.419607	0.730191
1073	H	0.914522	0.464555	0.720707
1074	H	0.875443	0.419634	0.61624
1075	C	0.917473	0.473892	0.646103
1076	C	0.897168	0.502535	0.626914
1077	C	0.979299	0.502523	0.626882
1078	C	0.958555	0.474173	0.64591
1079	H	0.973504	0.453709	0.660054
1080	H	0.867328	0.502535	0.62692
1081	C	0.129352	0.58544	0.646094
1082	C	0.107666	0.558847	0.66649
1083	C	0.106747	0.560197	0.707632
1084	C	0.129344	0.585435	0.730191
1085	H	0.090279	0.540489	0.72069
1086	H	0.129355	0.585443	0.61624
1087	C	0.087327	0.531174	0.646088
1088	C	0.046245	0.530885	0.645902
1089	H	0.031295	0.551349	0.660045
1090	C	0.15103	0.612033	0.666499
1091	C	0.151944	0.610678	0.707638
1092	H	0.168416	0.630378	0.720705
1093	C	0.171374	0.639706	0.646097
1094	C	0.233204	0.668316	0.626859
1095	C	0.212456	0.639971	0.645887
1096	H	0.227402	0.619505	0.660037
1097	C	0.151031	0.724662	0.587306
1098	C	0.129304	0.751222	0.607708
1099	C	0.129361	0.751269	0.523611
1100	C	0.151967	0.726034	0.546167
1101	H	0.168467	0.706356	0.533101
1102	H	0.129282	0.751205	0.637562
1103	C	0.151073	0.668357	0.62692
1104	C	0.171377	0.696986	0.607706
1105	C	0.212459	0.696675	0.607848
1106	H	0.227408	0.717135	0.593699
1107	H	0.121233	0.668371	0.62694
1108	C	0.378026	0.585402	0.607706
1109	C	0.399751	0.558839	0.587306
1110	C	0.400674	0.560203	0.546167
1111	C	0.378046	0.585421	0.523611
1112	H	0.417186	0.540533	0.533098
1113	H	0.37802	0.585396	0.637559
1114	C	0.420103	0.531169	0.607706
1115	C	0.461187	0.530877	0.607866
1116	H	0.476131	0.551338	0.593713
1117	C	0.356312	0.611973	0.587309
1118	C	0.355413	0.610631	0.546167
1119	H	0.338912	0.630309	0.533101
1120	C	0.356269	0.66828	0.626911
1121	C	0.335964	0.639643	0.607708
1122	C	0.294882	0.639943	0.607863
1123	H	0.279935	0.619485	0.593707
1124	H	0.386109	0.668272	0.626926
1125	C	0.356309	0.724601	0.66649
1126	C	0.377994	0.751194	0.646094
1127	C	0.378011	0.751167	0.730191
1128	C	0.35541	0.725932	0.707632
1129	H	0.338933	0.706234	0.720693
1130	H	0.377991	0.751203	0.61624
1131	C	0.335967	0.696934	0.646085
1132	C	0.274136	0.66831	0.626859
1133	C	0.294885	0.696664	0.645878
1134	H	0.279938	0.71713	0.660022
1135	C	0.626715	0.58544	0.646094
1136	C	0.605028	0.558847	0.66649
1137	C	0.604111	0.560197	0.707632
1138	C	0.626707	0.585435	0.730191
1139	H	0.587642	0.540489	0.72069
1140	H	0.626718	0.585443	0.61624
1141	C	0.584691	0.531174	0.646088
1142	C	0.543609	0.530885	0.645902
1143	H	0.528657	0.551349	0.660045
1144	C	0.648394	0.612033	0.666499
1145	C	0.649305	0.610678	0.707638
1146	H	0.66578	0.630378	0.720705
1147	C	0.668737	0.639706	0.646097
1148	C	0.730566	0.668316	0.626859
1149	C	0.709819	0.639971	0.645887
1150	H	0.724765	0.619505	0.660037
1151	C	0.648394	0.724662	0.587306
1152	C	0.626666	0.751222	0.607708
1153	C	0.626724	0.751269	0.523611
1154	C	0.649329	0.726034	0.546167
1155	H	0.665829	0.706356	0.533101
1156	H	0.626646	0.751205	0.637562
1157	C	0.648435	0.668357	0.62692
1158	C	0.66874	0.696986	0.607706
1159	C	0.709822	0.696675	0.607848
1160	H	0.724771	0.717135	0.593699
1161	H	0.618595	0.668371	0.62694
1162	C	0.87539	0.585402	0.607706
1163	C	0.897113	0.558839	0.587306
1164	C	0.898038	0.560203	0.546167
1165	C	0.875411	0.585421	0.523611
1166	H	0.914548	0.540533	0.533098
1167	H	0.875385	0.585396	0.637559
1168	C	0.917467	0.531169	0.607706
1169	C	0.958549	0.530877	0.607866
1170	H	0.973495	0.551338	0.593713
1171	C	0.853677	0.611973	0.587309
1172	C	0.852774	0.610631	0.546167
1173	H	0.836277	0.630309	0.533101
1174	C	0.85363	0.66828	0.626911
1175	C	0.833328	0.639643	0.607708
1176	C	0.792246	0.639943	0.607863
1177	H	0.777297	0.619485	0.593707
1178	H	0.88347	0.668272	0.626926
1179	C	0.853671	0.724601	0.66649
1180	C	0.875355	0.751194	0.646094
1181	C	0.875373	0.751167	0.730191
1182	C	0.852774	0.725932	0.707632
1183	H	0.836297	0.706234	0.720693
1184	H	0.875353	0.751203	0.61624
1185	C	0.833328	0.696934	0.646085
1186	C	0.771499	0.66831	0.626859
1187	C	0.792246	0.696664	0.645878
1188	H	0.7773	0.71713	0.660022
1189	C	0.107622	0.777815	0.587309
1190	C	0.106764	0.776509	0.546167
1191	H	0.09024	0.796171	0.533104
1192	H	0.031247	0.785278	0.593774
1193	C	0.151125	0.999893	0.626891
1194	H	0.121284	0.999895	0.626871
1195	C	0.151042	0.943588	0.666499
1196	C	0.129333	0.917017	0.646094
1197	C	0.107611	0.890446	0.66649
1198	C	0.106687	0.891801	0.707629
1199	C	0.129313	0.917014	0.730191
1200	C	0.151947	0.94223	0.707641
1201	H	0.090197	0.872109	0.72069
1202	H	0.168437	0.961916	0.720707
1203	H	0.129342	0.917014	0.61624
1204	C	0.171408	0.97125	0.646105
1205	C	0.233255	0.999895	0.62697
1206	C	0.212491	0.971539	0.645966
1207	H	0.227426	0.951079	0.66013
1208	C	0.087266	0.862776	0.646085
1209	C	0.107572	0.834141	0.626879
1210	C	0.087272	0.805485	0.607711
1211	C	0.046191	0.805752	0.607906
1212	C	0.025441	0.834103	0.626929
1213	C	0.046184	0.862467	0.645934
1214	H	0.031234	0.882928	0.660083
1215	H	0.137412	0.834152	0.626868
1216	C	0.399696	0.777771	0.666499
1217	C	0.40061	0.776413	0.707638
1218	H	0.417093	0.796099	0.72071
1219	H	0.476073	0.785281	0.660098
1220	C	0.274188	0.999882	0.62697
1221	C	0.356327	0.943569	0.587309
1222	C	0.378009	0.916976	0.607708
1223	C	0.399696	0.890391	0.587303
1224	C	0.400616	0.891746	0.546165
1225	C	0.378014	0.916989	0.523611
1226	C	0.355416	0.942227	0.54617
1227	H	0.417105	0.872063	0.533098
1228	H	0.338933	0.961922	0.533104
1229	H	0.378009	0.916973	0.637562
1230	C	0.356318	0.999895	0.626879
1231	C	0.335999	0.971247	0.607717
1232	C	0.294917	0.971525	0.607941
1233	H	0.27996	0.951062	0.593803
1234	H	0.386158	0.999893	0.626853
1235	C	0.420045	0.805444	0.646105
1236	C	0.39974	0.834075	0.626894
1237	C	0.420042	0.862718	0.607703
1238	C	0.461123	0.862442	0.607898
1239	C	0.481871	0.834097	0.626929
1240	C	0.461126	0.805741	0.645942
1241	H	0.47607	0.882909	0.593751
1242	H	0.369899	0.83407	0.626885
1243	C	0.604984	0.777815	0.587309
1244	C	0.604126	0.776509	0.546167
1245	H	0.587602	0.796171	0.533104
1246	H	0.528611	0.785278	0.593774
1247	C	0.648487	0.999893	0.626891
1248	H	0.618647	0.999895	0.626871
1249	C	0.648406	0.943588	0.666499
1250	C	0.626695	0.917017	0.646094
1251	C	0.604973	0.890446	0.66649
1252	C	0.60405	0.891801	0.707629
1253	C	0.626675	0.917014	0.730191
1254	C	0.649308	0.94223	0.707641
1255	H	0.587561	0.872109	0.72069
1256	H	0.6658	0.961916	0.720707
1257	H	0.626704	0.917014	0.61624
1258	C	0.668772	0.97125	0.646105
1259	C	0.730618	0.999895	0.62697
1260	C	0.709854	0.971539	0.645966
1261	H	0.724788	0.951079	0.66013
1262	C	0.584627	0.862776	0.646085
1263	C	0.604935	0.834141	0.626879
1264	C	0.584636	0.805485	0.607711
1265	C	0.543554	0.805752	0.607906
1266	C	0.522804	0.834103	0.626929
1267	C	0.543545	0.862467	0.645934
1268	H	0.528596	0.882928	0.660083
1269	H	0.634775	0.834152	0.626868
1270	C	0.897058	0.777771	0.666499
1271	C	0.897972	0.776413	0.707638
1272	H	0.914458	0.796099	0.72071
1273	H	0.973434	0.785281	0.660098
1274	C	0.771551	0.999882	0.62697
1275	C	0.853688	0.943569	0.587309
1276	C	0.87537	0.916976	0.607708
1277	C	0.89706	0.890391	0.587303
1278	C	0.897977	0.891746	0.546165
1279	C	0.875379	0.916989	0.523611
1280	C	0.852777	0.942227	0.54617
1281	H	0.914466	0.872063	0.533098
1282	H	0.836297	0.961922	0.533104
1283	H	0.87537	0.916973	0.637562
1284	C	0.853682	0.999895	0.626879
1285	C	0.833363	0.971247	0.607717
1286	C	0.792281	0.971525	0.607941
1287	H	0.777323	0.951062	0.593803
1288	H	0.883523	0.999893	0.626853
1289	C	0.917406	0.805444	0.646105
1290	C	0.897104	0.834075	0.626894
1291	C	0.917406	0.862718	0.607703
1292	C	0.958488	0.862442	0.607898
1293	C	0.979235	0.834097	0.626929
1294	C	0.958488	0.805741	0.645942
1295	H	0.973434	0.882909	0.593751
1296	H	0.867261	0.83407	0.626885
1297	C	0.151108	0.061469	0.915181
1298	C	0.1294	0.088039	0.894776
1299	C	0.107742	0.114652	0.915169
1300	C	0.106895	0.113358	0.956311
1301	C	0.129476	0.088108	0.978873
1302	C	0.152059	0.062853	0.95632
1303	H	0.090387	0.133034	0.969375
1304	H	0.168537	0.043156	0.969384
1305	H	0.129369	0.088012	0.864922
1306	C	0.171432	0.033782	0.894782
1307	C	0.212514	0.033501	0.894563
1308	H	0.227472	0.053966	0.908698
1309	C	0.087383	0.199603	0.856385
1310	C	0.107691	0.17097	0.875588
1311	C	0.087393	0.142315	0.894761
1312	C	0.046311	0.142589	0.894578
1313	C	0.02556	0.170938	0.875559
1314	C	0.046301	0.199301	0.856548
1315	H	0.031369	0.122116	0.908716
1316	H	0.137531	0.170979	0.875596
1317	C	0.129428	0.253855	0.856388
1318	C	0.107725	0.22728	0.835986
1319	C	0.106838	0.228617	0.794847
1320	C	0.129432	0.253863	0.772293
1321	H	0.0903	0.208968	0.781777
1322	H	0.129421	0.253858	0.886241
1323	H	0.03135	0.219761	0.842398
1324	C	0.356382	0.061462	0.835989
1325	C	0.378093	0.088032	0.856391
1326	C	0.399824	0.114592	0.835997
1327	C	0.400724	0.113253	0.794855
1328	C	0.378125	0.088021	0.772293
1329	C	0.355515	0.062789	0.794847
1330	H	0.417274	0.132898	0.781792
1331	H	0.338976	0.04314	0.781777
1332	H	0.378078	0.088036	0.886244
1333	C	0.336019	0.033795	0.856382
1334	C	0.294937	0.033504	0.856525
1335	H	0.279998	0.053967	0.842366
1336	C	0.420167	0.142267	0.856396
1337	C	0.399862	0.170904	0.875596
1338	C	0.420161	0.199552	0.894785
1339	C	0.461243	0.199276	0.894595
1340	C	0.48199	0.170931	0.875564
1341	C	0.461249	0.142572	0.856551
1342	H	0.476198	0.12211	0.842404
1343	H	0.370022	0.170897	0.875605
1344	C	0.378105	0.253797	0.894776
1345	C	0.399813	0.227226	0.915181
1346	C	0.400744	0.228598	0.95632
1347	C	0.378131	0.253829	0.978873
1348	H	0.417236	0.208912	0.969384
1349	H	0.378096	0.253787	0.864922
1350	H	0.476189	0.219747	0.90873
1351	C	0.64847	0.061469	0.915181
1352	C	0.626762	0.088039	0.894776
1353	C	0.605104	0.114652	0.915169
1354	C	0.604257	0.113358	0.956311
1355	C	0.626838	0.088108	0.978873
1356	C	0.649422	0.062853	0.95632
1357	H	0.58775	0.133034	0.969375
1358	H	0.665899	0.043156	0.969384
1359	H	0.626733	0.088012	0.864922
1360	C	0.668795	0.033782	0.894782
1361	C	0.709877	0.033501	0.894563
1362	H	0.724835	0.053966	0.908698
1363	C	0.584746	0.199603	0.856385
1364	C	0.605054	0.17097	0.875588
1365	C	0.584755	0.142315	0.894761
1366	C	0.543673	0.142589	0.894578
1367	C	0.522923	0.170938	0.875559
1368	C	0.543665	0.199301	0.856548
1369	H	0.528733	0.122116	0.908716
1370	H	0.634895	0.170979	0.875596
1371	C	0.626791	0.253855	0.856388
1372	C	0.605086	0.22728	0.835986
1373	C	0.604201	0.228617	0.794847
1374	C	0.626794	0.253863	0.772293
1375	H	0.587663	0.208968	0.781777
1376	H	0.626782	0.253858	0.886241
1377	H	0.528713	0.219761	0.842398
1378	C	0.853744	0.061462	0.835989
1379	C	0.875454	0.088032	0.856391
1380	C	0.897186	0.114592	0.835997
1381	C	0.898088	0.113253	0.794855
1382	C	0.875486	0.088021	0.772293
1383	C	0.852876	0.062789	0.794847
1384	H	0.914635	0.132898	0.781792
1385	H	0.836338	0.04314	0.781777
1386	H	0.875443	0.088036	0.886244
1387	C	0.83338	0.033795	0.856382
1388	C	0.792299	0.033504	0.856525
1389	H	0.777361	0.053967	0.842366
1390	C	0.917528	0.142267	0.856396
1391	C	0.897223	0.170904	0.875596
1392	C	0.917523	0.199552	0.894785
1393	C	0.958604	0.199276	0.894595
1394	C	0.979354	0.170931	0.875564
1395	C	0.95861	0.142572	0.856551
1396	H	0.973559	0.12211	0.842404
1397	H	0.867383	0.170897	0.875605
1398	C	0.875466	0.253797	0.894776
1399	C	0.897177	0.227226	0.915181
1400	C	0.898108	0.228598	0.95632
1401	C	0.875492	0.253829	0.978873
1402	H	0.9146	0.208912	0.969384
1403	H	0.87546	0.253787	0.864922
1404	H	0.973551	0.219747	0.90873
1405	C	0.151127	0.280437	0.835991
1406	C	0.152046	0.279088	0.79485
1407	H	0.168525	0.298788	0.781792
1408	C	0.17147	0.308108	0.856394
1409	C	0.233296	0.336723	0.875631
1410	C	0.212551	0.308378	0.856597
1411	H	0.227497	0.287912	0.842453
1412	C	0.151119	0.393063	0.915181
1413	C	0.152062	0.394449	0.95632
1414	H	0.168558	0.374765	0.969387
1415	C	0.151165	0.336756	0.875573
1416	C	0.171467	0.365387	0.89479
1417	C	0.212549	0.365082	0.894639
1418	H	0.227497	0.385542	0.908795
1419	H	0.121325	0.336764	0.875559
1420	C	0.129381	0.419612	0.894776
1421	C	0.107687	0.446202	0.915166
1422	C	0.106834	0.444902	0.956311
1423	C	0.129445	0.419678	0.97887
1424	H	0.090306	0.464564	0.969372
1425	H	0.129357	0.419587	0.864922
1426	C	0.107626	0.50251	0.875567
1427	C	0.087332	0.473864	0.894761
1428	C	0.04625	0.474154	0.894607
1429	C	0.025496	0.502512	0.875602
1430	H	0.031309	0.453687	0.908754
1431	H	0.137466	0.502512	0.875559
1432	C	0.356408	0.280382	0.915172
1433	C	0.355506	0.279043	0.956311
1434	H	0.339029	0.298744	0.969372
1435	C	0.356359	0.336687	0.875559
1436	C	0.33606	0.308053	0.894767
1437	C	0.294978	0.308353	0.894619
1438	H	0.280031	0.287895	0.908777
1439	H	0.386199	0.336679	0.875541
1440	C	0.356394	0.393016	0.835989
1441	C	0.355518	0.394341	0.794847
1442	H	0.338997	0.374677	0.78178
1443	C	0.336054	0.365341	0.856388
1444	C	0.274228	0.33672	0.875625
1445	C	0.294972	0.365073	0.856603
1446	H	0.280023	0.38554	0.842462
1447	C	0.378073	0.419607	0.856391
1448	C	0.399769	0.446191	0.835994
1449	C	0.400665	0.444858	0.794852
1450	C	0.378093	0.419601	0.772293
1451	H	0.417192	0.46452	0.781789
1452	H	0.378067	0.419609	0.886244
1453	C	0.420106	0.473867	0.856396
1454	C	0.399795	0.502512	0.875579
1455	C	0.481926	0.502507	0.875608
1456	C	0.461187	0.474156	0.856583
1457	H	0.476137	0.45369	0.842442
1458	H	0.369955	0.502512	0.87557
1459	C	0.64849	0.280437	0.835991
1460	C	0.649407	0.279088	0.79485
1461	H	0.665888	0.298788	0.781792
1462	C	0.668833	0.308108	0.856394
1463	C	0.730659	0.336723	0.875631
1464	C	0.709915	0.308378	0.856597
1465	H	0.724861	0.287912	0.842453
1466	C	0.648482	0.393063	0.915181
1467	C	0.649425	0.394449	0.95632
1468	H	0.66592	0.374765	0.969387
1469	C	0.648528	0.336756	0.875573
1470	C	0.66883	0.365387	0.89479
1471	C	0.709912	0.365082	0.894639
1472	H	0.724858	0.385542	0.908795
1473	H	0.618688	0.336764	0.875559
1474	C	0.626745	0.419612	0.894776
1475	C	0.605048	0.446202	0.915166
1476	C	0.604195	0.444902	0.956311
1477	C	0.626809	0.419678	0.97887
1478	H	0.587669	0.464564	0.969372
1479	H	0.626718	0.419587	0.864922
1480	C	0.60499	0.50251	0.875567
1481	C	0.584694	0.473864	0.894761
1482	C	0.543612	0.474154	0.894607
1483	C	0.522859	0.502512	0.875602
1484	H	0.528672	0.453687	0.908754
1485	H	0.63483	0.502512	0.875559
1486	C	0.85377	0.280382	0.915172
1487	C	0.852867	0.279043	0.956311
1488	H	0.83639	0.298744	0.969372
1489	C	0.85372	0.336687	0.875559
1490	C	0.833421	0.308053	0.894767
1491	C	0.79234	0.308353	0.894619
1492	H	0.777393	0.287895	0.908777
1493	H	0.883561	0.336679	0.875541
1494	C	0.853755	0.393016	0.835989
1495	C	0.852879	0.394341	0.794847
1496	H	0.836358	0.374677	0.78178
1497	C	0.833415	0.365341	0.856388
1498	C	0.771589	0.33672	0.875625
1499	C	0.792334	0.365073	0.856603
1500	H	0.777385	0.38554	0.842462
1501	C	0.875434	0.419607	0.856391
1502	C	0.89713	0.446191	0.835994
1503	C	0.898027	0.444858	0.794852
1504	C	0.875454	0.419601	0.772293
1505	H	0.914554	0.46452	0.781789
1506	H	0.875428	0.419609	0.886244
1507	C	0.917467	0.473867	0.856396
1508	C	0.897159	0.502512	0.875579
1509	C	0.97929	0.502507	0.875608
1510	C	0.958549	0.474156	0.856583
1511	H	0.973498	0.45369	0.842442
1512	H	0.867319	0.502512	0.87557
1513	C	0.129338	0.585421	0.856391
1514	C	0.107652	0.558834	0.835989
1515	C	0.106766	0.560167	0.794847
1516	C	0.129346	0.585424	0.772293
1517	H	0.090236	0.540514	0.781777
1518	H	0.129331	0.585424	0.886241
1519	C	0.087315	0.531155	0.856385
1520	C	0.046234	0.530869	0.85658
1521	H	0.031282	0.551335	0.842439
1522	C	0.151027	0.612011	0.835991
1523	C	0.151948	0.610659	0.79485
1524	H	0.16842	0.630364	0.781792
1525	C	0.171367	0.639684	0.856394
1526	C	0.233194	0.668297	0.875631
1527	C	0.212448	0.639952	0.8566
1528	H	0.227395	0.619485	0.842456
1529	C	0.151019	0.72464	0.915181
1530	C	0.129291	0.751197	0.894773
1531	C	0.129359	0.751266	0.97887
1532	C	0.151964	0.726026	0.95632
1533	H	0.168453	0.706339	0.969387
1534	H	0.129266	0.751172	0.864922
1535	C	0.151063	0.668332	0.875573
1536	C	0.171364	0.696961	0.89479
1537	C	0.212447	0.696658	0.894639
1538	H	0.227395	0.717116	0.908792
1539	H	0.121222	0.668341	0.875559
1540	C	0.378014	0.58538	0.894776
1541	C	0.39974	0.558823	0.915181
1542	C	0.400671	0.560197	0.95632
1543	C	0.378046	0.585416	0.978873
1544	H	0.417172	0.540516	0.969387
1545	H	0.378006	0.585371	0.864922
1546	C	0.420094	0.53115	0.894788
1547	C	0.461176	0.530858	0.894627
1548	H	0.476119	0.551324	0.908771
1549	C	0.356306	0.611959	0.915172
1550	C	0.355407	0.610623	0.956311
1551	H	0.338921	0.630318	0.969372
1552	C	0.356257	0.668261	0.875559
1553	C	0.335958	0.639626	0.894767
1554	C	0.294873	0.639929	0.894619
1555	H	0.279929	0.619472	0.90878
1556	H	0.386097	0.668253	0.875541
1557	C	0.356292	0.724587	0.835989
1558	C	0.377982	0.751172	0.856391
1559	C	0.378009	0.751161	0.772293
1560	C	0.355419	0.725913	0.794847
1561	H	0.338892	0.706254	0.78178
1562	H	0.377977	0.751175	0.886244
1563	C	0.335952	0.696915	0.856388
1564	C	0.274126	0.668294	0.875625
1565	C	0.29487	0.696647	0.8566
1566	H	0.279921	0.717113	0.842459
1567	C	0.626701	0.585421	0.856391
1568	C	0.605013	0.558834	0.835989
1569	C	0.604129	0.560167	0.794847
1570	C	0.62671	0.585424	0.772293
1571	H	0.587599	0.540514	0.781777
1572	H	0.626695	0.585424	0.886241
1573	C	0.584679	0.531155	0.856385
1574	C	0.543598	0.530869	0.85658
1575	H	0.528646	0.551335	0.842439
1576	C	0.648388	0.612011	0.835991
1577	C	0.649311	0.610659	0.79485
1578	H	0.665783	0.630364	0.781792
1579	C	0.668731	0.639684	0.856394
1580	C	0.730557	0.668297	0.875631
1581	C	0.70981	0.639952	0.8566
1582	H	0.724759	0.619485	0.842456
1583	C	0.648383	0.72464	0.915181
1584	C	0.626654	0.751197	0.894773
1585	C	0.626721	0.751266	0.97887
1586	C	0.649326	0.726026	0.95632
1587	H	0.665815	0.706339	0.969387
1588	H	0.626628	0.751172	0.864922
1589	C	0.648426	0.668332	0.875573
1590	C	0.668728	0.696961	0.89479
1591	C	0.70981	0.696658	0.894639
1592	H	0.724756	0.717116	0.908792
1593	H	0.618586	0.668341	0.875559
1594	C	0.875376	0.58538	0.894776
1595	C	0.897104	0.558823	0.915181
1596	C	0.898036	0.560197	0.95632
1597	C	0.875408	0.585416	0.978873
1598	H	0.914533	0.540516	0.969387
1599	H	0.87537	0.585371	0.864922
1600	C	0.917456	0.53115	0.894788
1601	C	0.958537	0.530858	0.894627
1602	H	0.973481	0.551324	0.908771
1603	C	0.853671	0.611959	0.915172
1604	C	0.852769	0.610623	0.956311
1605	H	0.836285	0.630318	0.969372
1606	C	0.853618	0.668261	0.875559
1607	C	0.833319	0.639626	0.894767
1608	C	0.792238	0.639929	0.894619
1609	H	0.777291	0.619472	0.90878
1610	H	0.883459	0.668253	0.875541
1611	C	0.853656	0.724587	0.835989
1612	C	0.875347	0.751172	0.856391
1613	C	0.87537	0.751161	0.772293
1614	C	0.85278	0.725913	0.794847
1615	H	0.836253	0.706254	0.78178
1616	H	0.875338	0.751175	0.886244
1617	C	0.833313	0.696915	0.856388
1618	C	0.771487	0.668294	0.875625
1619	C	0.792232	0.696647	0.8566
1620	H	0.777283	0.717113	0.842459
1621	C	0.107614	0.777798	0.915166
1622	C	0.106762	0.776501	0.956308
1623	H	0.090241	0.796168	0.969372
1624	H	0.03124	0.785264	0.908713
1625	C	0.151114	0.999865	0.875605
1626	H	0.121273	0.999865	0.875628
1627	C	0.151038	0.943563	0.835991
1628	C	0.129319	0.916998	0.856388
1629	C	0.107597	0.890432	0.835989
1630	C	0.106706	0.891771	0.794847
1631	C	0.129315	0.917003	0.772293
1632	C	0.151951	0.942213	0.79485
1633	H	0.090154	0.872134	0.781777
1634	H	0.168441	0.961903	0.781789
1635	H	0.129318	0.916998	0.886241
1636	C	0.171402	0.971228	0.856385
1637	C	0.233245	0.999876	0.875521
1638	C	0.212484	0.97152	0.856522
1639	H	0.22742	0.951057	0.84236
1640	C	0.087254	0.862757	0.856388
1641	C	0.107561	0.834119	0.875588
1642	C	0.087264	0.80546	0.894758
1643	C	0.046183	0.805736	0.894575
1644	C	0.025432	0.834086	0.875559
1645	C	0.046172	0.862451	0.856548
1646	H	0.031221	0.882914	0.842401
1647	H	0.137402	0.834128	0.875596
1648	C	0.399696	0.777746	0.835994
1649	C	0.400593	0.77641	0.794852
1650	H	0.417128	0.796063	0.781789
1651	H	0.476067	0.785261	0.842401
1652	C	0.274177	0.999865	0.875515
1653	C	0.356318	0.943555	0.915169
1654	C	0.377994	0.916954	0.894776
1655	C	0.399684	0.890372	0.915184
1656	C	0.40061	0.891741	0.956323
1657	C	0.378014	0.916987	0.978873
1658	C	0.35541	0.942219	0.956311
1659	H	0.41709	0.872046	0.969387
1660	H	0.338944	0.961927	0.969369
1661	H	0.377994	0.916945	0.864922
1662	C	0.356306	0.999876	0.875588
1663	C	0.33599	0.971231	0.894758
1664	C	0.294908	0.971509	0.894543
1665	H	0.279954	0.951048	0.908684
1666	H	0.386147	0.999876	0.875611
1667	C	0.420036	0.805419	0.856394
1668	C	0.399731	0.834053	0.875596
1669	C	0.420033	0.862699	0.894788
1670	C	0.461115	0.862423	0.894595
1671	C	0.481862	0.834081	0.875564
1672	C	0.46112	0.805722	0.856548
1673	H	0.476058	0.882895	0.908733
1674	H	0.369891	0.834048	0.875605
1675	C	0.604976	0.777798	0.915166
1676	C	0.604126	0.776501	0.956308
1677	H	0.587605	0.796168	0.969372
1678	H	0.528602	0.785264	0.908713
1679	C	0.648476	0.999865	0.875605
1680	H	0.618635	0.999865	0.875628
1681	C	0.6484	0.943563	0.835991
1682	C	0.626681	0.916998	0.856388
1683	C	0.604961	0.890432	0.835989
1684	C	0.604067	0.891771	0.794847
1685	C	0.626678	0.917003	0.772293
1686	C	0.649314	0.942213	0.79485
1687	H	0.587517	0.872134	0.781777
1688	H	0.665803	0.961903	0.781789
1689	H	0.626681	0.916998	0.886241
1690	C	0.668763	0.971228	0.856385
1691	C	0.730607	0.999876	0.875521
1692	C	0.709848	0.97152	0.856522
1693	H	0.724782	0.951057	0.84236
1694	C	0.584618	0.862757	0.856388
1695	C	0.604923	0.834119	0.875588
1696	C	0.584627	0.80546	0.894758
1697	C	0.543545	0.805736	0.894575
1698	C	0.522795	0.834086	0.875559
1699	C	0.543534	0.862451	0.856548
1700	H	0.528584	0.882914	0.842401
1701	H	0.634764	0.834128	0.875596
1702	C	0.897058	0.777746	0.835994
1703	C	0.897954	0.77641	0.794852
1704	H	0.91449	0.796063	0.781789
1705	H	0.973431	0.785261	0.842401
1706	C	0.77154	0.999865	0.875515
1707	C	0.853682	0.943555	0.915169
1708	C	0.875358	0.916954	0.894776
1709	C	0.897049	0.890372	0.915184
1710	C	0.897974	0.891741	0.956323
1711	C	0.875376	0.916987	0.978873
1712	C	0.852771	0.942219	0.956311
1713	H	0.914455	0.872046	0.969387
1714	H	0.836306	0.961927	0.969369
1715	H	0.875355	0.916945	0.864922
1716	C	0.853671	0.999876	0.875588
1717	C	0.833354	0.971231	0.894758
1718	C	0.792273	0.971509	0.894543
1719	H	0.777318	0.951048	0.908684
1720	H	0.883511	0.999876	0.875611
1721	C	0.9174	0.805419	0.856394
1722	C	0.897093	0.834053	0.875596
1723	C	0.917395	0.862699	0.894788
1724	C	0.958476	0.862423	0.894595
1725	C	0.979226	0.834081	0.875564
1726	C	0.958482	0.805722	0.856548
1727	H	0.973422	0.882895	0.908733
1728	H	0.867252	0.834048	0.875605
