data_C912H528N96_2018-02-15_12:40:38
#******************************************
#
# CIF file created by Zeo++
# Zeo++ is an open source package to
# analyze microporous materials
#
#*******************************************

_cell_length_a		36.5732   
_cell_length_b		36.5732   
_cell_length_c		34.5527   
_cell_angle_alpha		90   
_cell_angle_beta		90   
_cell_angle_gamma		120   

_symmetry_space_group_name_H-M		'P1'
_symmetry_Int_Tables_number		1
_symmetry_cell_setting		Monoclinic

loop_
_symmetry_equiv_pos_as_xyz
'+x,+y,+z'

loop_
_atom_site_label
_atom_site_type_symbol
_atom_site_fract_x
_atom_site_fract_y
_atom_site_fract_z
1	C	0.197062	0.472868	0.017121
2	C	0.225625	0.465284	0.038499
3	C	0.224395	0.461959	0.07918
4	C	0.196994	0.472729	0.098745
5	C	0.169617	0.483552	0.079212
6	C	0.168442	0.48035	0.03852
7	H	0.246917	0.460204	0.024103
8	H	0.147204	0.485519	0.024133
9	H	0.196968	0.472678	0.128262
10	C	0.197077	0.472896	0.975494
11	C	0.234658	0.485806	0.954185
12	C	0.235909	0.485812	0.913325
13	C	0.197067	0.472785	0.894036
14	C	0.158233	0.459825	0.913311
15	C	0.159494	0.459948	0.954173
16	H	0.262146	0.495798	0.96893
17	H	0.19706	0.472725	0.864635
18	H	0.132009	0.449984	0.968913
19	C	0.446779	0.222608	0.683804
20	C	0.454312	0.25871	0.705229
21	C	0.457672	0.260756	0.745909
22	C	0.446892	0.222559	0.765424
23	C	0.436064	0.184385	0.745842
24	C	0.439291	0.186473	0.705154
25	H	0.45944	0.285116	0.690863
26	H	0.434142	0.160093	0.690727
27	H	0.446932	0.222547	0.794944
28	C	0.446819	0.222672	0.64218
29	C	0.433902	0.24735	0.620888
30	C	0.43396	0.248668	0.580032
31	C	0.447045	0.22291	0.560722
32	C	0.460041	0.197055	0.57998
33	C	0.459848	0.198113	0.620842
34	H	0.423855	0.264791	0.635651
35	H	0.447118	0.222991	0.531318
36	H	0.469818	0.180587	0.63557
37	C	0.197205	0.222707	0.35049
38	C	0.161122	0.19413	0.371933
39	C	0.1591	0.19546	0.412613
40	C	0.197296	0.222908	0.432113
41	C	0.235456	0.250266	0.412514
42	C	0.233348	0.251357	0.371826
43	H	0.134706	0.172845	0.357584
44	H	0.259703	0.272617	0.357387
45	H	0.197314	0.222983	0.46163
46	C	0.197127	0.222669	0.308861
47	C	0.172433	0.185073	0.287574
48	C	0.171157	0.183796	0.246714
49	C	0.196947	0.222627	0.227402
50	C	0.222827	0.261475	0.246652
51	C	0.221718	0.260241	0.287513
52	H	0.154956	0.157596	0.302341
53	H	0.196886	0.222617	0.197999
54	H	0.239242	0.287742	0.302231
55	C	0.247386	0.445494	0.099745
56	C	0.24833	0.408545	0.087511
57	N	0.259964	0.388402	0.11335
58	C	0.270985	0.400305	0.150472
59	C	0.271834	0.437159	0.164105
60	C	0.263007	0.461	0.137519
61	H	0.262763	0.487195	0.147618
62	C	0.271155	0.37087	0.176567
63	C	0.258148	0.300998	0.186376
64	C	0.246188	0.300619	0.225496
65	C	0.254377	0.340204	0.240704
66	N	0.267525	0.334347	0.163291
67	C	0.267599	0.375966	0.216761
68	C	0.271904	0.414336	0.230497
69	C	0.275503	0.445475	0.204282
70	H	0.26929	0.418582	0.259438
71	H	0.27487	0.471302	0.214871
72	H	0.246072	0.34237	0.268468
73	H	0.255785	0.274897	0.173298
74	C	0.231435	0.384724	0.050855
75	H	0.252552	0.40176	0.026921
76	H	0.199953	0.379723	0.045007
77	H	0.228782	0.35361	0.051966
78	C	0.474184	0.300173	0.766538
79	C	0.011125	0.33806	0.75427
80	N	0.031267	0.369863	0.780088
81	C	0.019368	0.369014	0.817208
82	C	0.982527	0.333012	0.830866
83	C	0.458681	0.30032	0.804301
84	H	0.432495	0.27388	0.814413
85	C	0.048803	0.398654	0.843282
86	C	0.118656	0.455579	0.853055
87	C	0.119072	0.443995	0.892169
88	C	0.079507	0.412574	0.907395
89	N	0.085305	0.431562	0.829989
90	C	0.043728	0.390031	0.883481
91	C	0.005373	0.355968	0.89724
92	C	0.974227	0.328399	0.871045
93	H	0.001147	0.349126	0.926187
94	H	0.448413	0.301942	0.881652
95	H	0.077387	0.402196	0.935188
96	H	0.144757	0.47933	0.839991
97	C	0.53497	0.344956	0.717633
98	H	0.51799	0.349095	0.693684
99	H	0.039914	0.318438	0.71179
100	H	0.566114	0.373377	0.718768
101	C	0.119684	0.172547	0.433248
102	C	0.081759	0.171483	0.420922
103	N	0.050007	0.159906	0.446784
104	C	0.050856	0.148894	0.483924
105	C	0.086872	0.148081	0.49757
106	C	0.119564	0.156915	0.47101
107	H	0.146023	0.157219	0.481137
108	C	0.021223	0.148777	0.509942
109	C	0.464423	0.16188	0.519672
110	C	0.475887	0.173751	0.558824
111	C	0.007347	0.165659	0.574038
112	N	0.488346	0.152406	0.496626
113	C	0.029893	0.152409	0.550136
114	C	0.063946	0.148115	0.563935
115	C	0.091498	0.144477	0.53776
116	H	0.070795	0.15078	0.592879
117	H	0.117958	0.145137	0.548385
118	H	0.017709	0.17391	0.601836
119	H	0.440561	0.164073	0.50664
120	C	0.074915	0.18863	0.384383
121	H	0.07079	0.167624	0.360336
122	H	0.101459	0.220108	0.378647
123	H	0.046509	0.191377	0.38557
124	C	0.146596	0.499934	0.099846
125	C	0.145509	0.036809	0.087612
126	N	0.133846	0.056895	0.113491
127	C	0.122757	0.044917	0.150595
128	C	0.121927	0.008051	0.164167
129	C	0.130873	0.984313	0.137563
130	H	0.131179	0.458142	0.14764
131	C	0.122606	0.074368	0.17668
132	C	0.135629	0.144227	0.186503
133	C	0.147685	0.144636	0.225598
134	C	0.139601	0.105067	0.240766
135	N	0.126207	0.110876	0.163405
136	C	0.126248	0.069265	0.216853
137	C	0.121958	0.030898	0.230582
138	C	0.118321	0.999756	0.204348
139	H	0.124654	0.026677	0.259513
140	H	0.119004	0.973951	0.214922
141	H	0.147861	0.102914	0.268551
142	H	0.137946	0.170316	0.173441
143	C	0.162741	0.060925	0.051142
144	H	0.141809	0.544104	0.027035
145	H	0.19425	0.065918	0.045459
146	H	0.165446	0.092059	0.05239
147	C	0.419704	0.144955	0.766431
148	C	0.382873	0.106984	0.75416
149	N	0.362803	0.075228	0.780031
150	C	0.37474	0.076096	0.817145
151	C	0.411616	0.112148	0.830712
152	C	0.435401	0.144823	0.804104
153	H	0.461489	0.171319	0.814259
154	C	0.345322	0.046496	0.843247
155	C	0.275424	0.489733	0.85311
156	C	0.275046	0.501459	0.892181
157	C	0.314654	0.032828	0.907378
158	N	0.308787	0.013607	0.830006
159	C	0.350422	0.055283	0.883417
160	C	0.388799	0.089361	0.89713
161	C	0.419948	0.116836	0.870892
162	H	0.392986	0.09632	0.926054
163	H	0.445725	0.143389	0.881406
164	H	0.316796	0.043432	0.935086
165	H	0.249306	0.465988	0.840058
166	C	0.358767	0.100105	0.717685
167	H	0.375622	0.096049	0.693574
168	H	0.353733	0.126599	0.712021
169	H	0.327653	0.071648	0.71891
170	C	0.2749	0.273445	0.43306
171	C	0.312901	0.274614	0.420838
172	N	0.344641	0.286288	0.446723
173	C	0.343725	0.297307	0.483843
174	C	0.307647	0.298074	0.497408
175	C	0.274991	0.289183	0.470773
176	H	0.248484	0.28876	0.48092
177	C	0.37326	0.297423	0.509977
178	C	0.430052	0.284322	0.51986
179	C	0.41826	0.272118	0.558902
180	C	0.386822	0.280258	0.574085
181	N	0.406201	0.293844	0.496756
182	C	0.3644	0.293613	0.55013
183	C	0.330297	0.297887	0.563819
184	C	0.302918	0.301732	0.537578
185	H	0.323263	0.295005	0.592729
186	H	0.276276	0.300734	0.548127
187	H	0.376223	0.271807	0.601796
188	H	0.453845	0.282018	0.506825
189	C	0.319845	0.257473	0.38434
190	H	0.323855	0.278395	0.360252
191	H	0.293401	0.225923	0.37865
192	H	0.348347	0.254894	0.385547
193	C	0.197064	0.972868	0.017121
194	C	0.225626	0.965285	0.038499
195	C	0.224395	0.96196	0.07918
196	C	0.196994	0.972729	0.098744
197	C	0.169617	0.983552	0.079212
198	C	0.168441	0.980348	0.03852
199	H	0.246918	0.960205	0.024103
200	H	0.147203	0.985519	0.024133
201	H	0.196969	0.972679	0.128262
202	C	0.197078	0.972897	0.975494
203	C	0.234657	0.985803	0.954185
204	C	0.235909	0.985813	0.913325
205	C	0.197069	0.972786	0.894036
206	C	0.158233	0.959823	0.913311
207	C	0.159494	0.959949	0.954173
208	H	0.262146	0.995799	0.96893
209	H	0.197061	0.972726	0.864635
210	H	0.132007	0.949982	0.968913
211	C	0.44678	0.722607	0.683804
212	C	0.454311	0.75871	0.705229
213	C	0.457671	0.760756	0.745909
214	C	0.446891	0.72256	0.765427
215	C	0.436066	0.684386	0.745842
216	C	0.439289	0.686473	0.705154
217	H	0.459439	0.785114	0.690865
218	H	0.434141	0.660094	0.690727
219	H	0.446933	0.722547	0.794944
220	C	0.446818	0.722671	0.64218
221	C	0.433902	0.747351	0.620888
222	C	0.43396	0.748667	0.580032
223	C	0.447044	0.722911	0.560722
224	C	0.46004	0.697056	0.57998
225	C	0.459847	0.698114	0.620842
226	H	0.423855	0.764791	0.635651
227	H	0.447118	0.722989	0.531318
228	H	0.469817	0.680588	0.63557
229	C	0.197205	0.722708	0.35049
230	C	0.161121	0.694129	0.371933
231	C	0.1591	0.695462	0.412613
232	C	0.197296	0.722907	0.432113
233	C	0.235457	0.750268	0.412514
234	C	0.233348	0.751357	0.371826
235	H	0.134707	0.672846	0.357584
236	H	0.259703	0.772618	0.357387
237	H	0.197314	0.722983	0.46163
238	C	0.197126	0.722667	0.308861
239	C	0.172434	0.685074	0.287575
240	C	0.171157	0.683796	0.246714
241	C	0.196947	0.722626	0.227402
242	C	0.222828	0.761476	0.246652
243	C	0.221718	0.760242	0.287513
244	H	0.154957	0.657597	0.302341
245	H	0.196886	0.722617	0.198
246	H	0.239242	0.787741	0.302231
247	C	0.247386	0.945495	0.099745
248	C	0.24833	0.908546	0.087511
249	N	0.259964	0.888403	0.11335
250	C	0.270985	0.900306	0.150472
251	C	0.271835	0.93716	0.164105
252	C	0.263007	0.961	0.137519
253	H	0.262764	0.987196	0.147618
254	C	0.271155	0.870871	0.176567
255	C	0.258148	0.800998	0.186376
256	C	0.246188	0.800619	0.225496
257	C	0.254375	0.840202	0.240704
258	N	0.267525	0.834348	0.163291
259	C	0.2676	0.875967	0.216762
260	C	0.271904	0.914336	0.230497
261	C	0.275503	0.945476	0.204282
262	H	0.26929	0.918583	0.259438
263	H	0.274869	0.971299	0.214871
264	H	0.246072	0.842371	0.268468
265	H	0.255785	0.774897	0.173298
266	C	0.231436	0.884725	0.050855
267	H	0.252553	0.901761	0.026921
268	H	0.199953	0.879724	0.045007
269	H	0.228782	0.85361	0.051966
270	C	0.474184	0.800174	0.766538
271	C	0.011125	0.838061	0.75427
272	N	0.031267	0.869864	0.780088
273	C	0.019367	0.869014	0.817208
274	C	0.982527	0.833013	0.830866
275	C	0.458681	0.800319	0.804301
276	H	0.432496	0.773881	0.814413
277	C	0.048804	0.898654	0.843282
278	C	0.118655	0.955579	0.853055
279	C	0.119073	0.943995	0.892169
280	C	0.079506	0.912575	0.907395
281	N	0.085304	0.931559	0.829989
282	C	0.043728	0.890032	0.883481
283	C	0.005373	0.855966	0.89724
284	C	0.974227	0.8284	0.871045
285	H	0.001145	0.849124	0.926187
286	H	0.448413	0.801942	0.881655
287	H	0.077388	0.902197	0.935188
288	H	0.144757	0.979331	0.839991
289	C	0.53497	0.844956	0.717633
290	H	0.517987	0.849092	0.693684
291	H	0.039913	0.818439	0.71179
292	H	0.566115	0.873378	0.718768
293	C	0.119683	0.672546	0.433248
294	C	0.081759	0.671482	0.420922
295	N	0.050007	0.659905	0.446784
296	C	0.050857	0.648896	0.483924
297	C	0.086871	0.648081	0.49757
298	C	0.119564	0.656915	0.47101
299	H	0.146023	0.657218	0.481137
300	C	0.021225	0.648779	0.509942
301	C	0.464423	0.661881	0.519672
302	C	0.475886	0.673752	0.558824
303	C	0.007347	0.665657	0.574038
304	N	0.488346	0.652406	0.496626
305	C	0.029892	0.65241	0.550136
306	C	0.063946	0.648116	0.563935
307	C	0.091497	0.644475	0.53776
308	H	0.070795	0.65078	0.592879
309	H	0.117958	0.645139	0.548385
310	H	0.017708	0.67391	0.601836
311	H	0.440561	0.664072	0.50664
312	C	0.074914	0.688629	0.384383
313	H	0.070789	0.667624	0.360336
314	H	0.101459	0.72011	0.378647
315	H	0.046509	0.691379	0.38557
316	C	0.146597	0.999934	0.099845
317	C	0.145508	0.536808	0.087613
318	N	0.133845	0.556894	0.113492
319	C	0.122756	0.544915	0.150596
320	C	0.121927	0.508052	0.164168
321	C	0.130872	0.484312	0.137563
322	H	0.13118	0.958143	0.14764
323	C	0.122606	0.574369	0.176681
324	C	0.135629	0.644226	0.186504
325	C	0.147685	0.644637	0.225598
326	C	0.139601	0.605067	0.240767
327	N	0.126207	0.610876	0.163406
328	C	0.126248	0.569264	0.216853
329	C	0.121958	0.530897	0.230582
330	C	0.118321	0.499758	0.204348
331	H	0.124654	0.526676	0.259514
332	H	0.119007	0.473954	0.214922
333	H	0.147861	0.602914	0.268551
334	H	0.137947	0.670317	0.173441
335	C	0.16274	0.560926	0.051142
336	H	0.14181	0.044103	0.027035
337	H	0.194249	0.565917	0.045459
338	H	0.165445	0.592059	0.05239
339	C	0.419705	0.644955	0.766431
340	C	0.382873	0.606983	0.75416
341	N	0.362802	0.575228	0.780031
342	C	0.37474	0.576096	0.817145
343	C	0.411615	0.612149	0.830712
344	C	0.4354	0.644823	0.804104
345	H	0.461489	0.671318	0.814259
346	C	0.345322	0.546494	0.843247
347	C	0.275424	0.989734	0.85311
348	C	0.275045	0.001458	0.892181
349	C	0.314653	0.532826	0.907378
350	N	0.308786	0.513608	0.830006
351	C	0.350423	0.555284	0.883417
352	C	0.388799	0.589363	0.89713
353	C	0.419947	0.616837	0.870895
354	H	0.392987	0.596321	0.926054
355	H	0.445725	0.643389	0.881406
356	H	0.316794	0.543432	0.935086
357	H	0.249306	0.965989	0.840058
358	C	0.358768	0.600104	0.717685
359	H	0.375623	0.59605	0.693574
360	H	0.353735	0.626599	0.712021
361	H	0.327653	0.571648	0.71891
362	C	0.2749	0.773445	0.43306
363	C	0.3129	0.774613	0.420838
364	N	0.34464	0.786289	0.446723
365	C	0.343725	0.797307	0.483843
366	C	0.307647	0.798075	0.497408
367	C	0.274991	0.789184	0.470773
368	H	0.248484	0.788761	0.48092
369	C	0.373259	0.797421	0.509977
370	C	0.430051	0.784322	0.51986
371	C	0.418261	0.772119	0.558902
372	C	0.386822	0.780258	0.574085
373	N	0.4062	0.793844	0.496756
374	C	0.3644	0.793613	0.550133
375	C	0.330296	0.797885	0.563819
376	C	0.302917	0.801731	0.537578
377	H	0.323263	0.795006	0.592731
378	H	0.276275	0.800733	0.548127
379	H	0.376222	0.771807	0.601796
380	H	0.453843	0.782017	0.506825
381	C	0.319845	0.757473	0.38434
382	H	0.323855	0.778396	0.360252
383	H	0.2934	0.725923	0.37865
384	H	0.348346	0.754893	0.385547
385	C	0.697063	0.472868	0.017121
386	C	0.725626	0.465284	0.038499
387	C	0.724396	0.461959	0.07918
388	C	0.696994	0.472729	0.098745
389	C	0.669619	0.483552	0.079212
390	C	0.668442	0.48035	0.03852
391	H	0.746918	0.460204	0.024103
392	H	0.647206	0.485519	0.024133
393	H	0.696969	0.472678	0.128262
394	C	0.697078	0.472896	0.975494
395	C	0.734659	0.485806	0.954185
396	C	0.735909	0.485812	0.913325
397	C	0.697069	0.472785	0.894036
398	C	0.658234	0.459825	0.913311
399	C	0.659494	0.459948	0.954173
400	H	0.762147	0.495798	0.96893
401	H	0.697061	0.472725	0.864635
402	H	0.632009	0.449984	0.968913
403	C	0.946782	0.222608	0.683804
404	C	0.954312	0.25871	0.705229
405	C	0.957672	0.260756	0.745909
406	C	0.946892	0.222559	0.765424
407	C	0.936067	0.184385	0.745842
408	C	0.939291	0.186473	0.705154
409	H	0.95944	0.285116	0.690863
410	H	0.934142	0.160093	0.690727
411	H	0.946935	0.222547	0.794944
412	C	0.946819	0.222672	0.64218
413	C	0.933902	0.24735	0.620888
414	C	0.933963	0.248668	0.580032
415	C	0.947045	0.22291	0.560722
416	C	0.960041	0.197055	0.57998
417	C	0.959848	0.198113	0.620842
418	H	0.923858	0.264791	0.635651
419	H	0.947121	0.222991	0.531318
420	H	0.969818	0.180587	0.63557
421	C	0.697206	0.222707	0.35049
422	C	0.661123	0.19413	0.371933
423	C	0.6591	0.19546	0.412613
424	C	0.697298	0.222908	0.432113
425	C	0.735457	0.250266	0.412514
426	C	0.733348	0.251357	0.371826
427	H	0.634707	0.172845	0.357584
428	H	0.759705	0.272617	0.357387
429	H	0.697314	0.222983	0.46163
430	C	0.697127	0.222669	0.308861
431	C	0.672434	0.185073	0.287574
432	C	0.671158	0.183796	0.246714
433	C	0.696947	0.222627	0.227402
434	C	0.722827	0.261475	0.246652
435	C	0.721718	0.260241	0.287513
436	H	0.654957	0.157596	0.302341
437	H	0.696888	0.222617	0.197999
438	H	0.739244	0.287742	0.302231
439	C	0.747385	0.445494	0.099745
440	C	0.74833	0.408545	0.087511
441	N	0.759965	0.388402	0.11335
442	C	0.770986	0.400305	0.150472
443	C	0.771834	0.437159	0.164105
444	C	0.763007	0.461	0.137519
445	H	0.762765	0.487195	0.147618
446	C	0.771156	0.37087	0.176567
447	C	0.758149	0.300998	0.186376
448	C	0.746188	0.300619	0.225496
449	C	0.754377	0.340204	0.240704
450	N	0.767526	0.334347	0.163291
451	C	0.767599	0.375966	0.216761
452	C	0.771904	0.414336	0.230497
453	C	0.775503	0.445475	0.204282
454	H	0.769291	0.418582	0.259438
455	H	0.774871	0.471302	0.214871
456	H	0.746073	0.34237	0.268468
457	H	0.755787	0.274897	0.173298
458	C	0.731437	0.384724	0.050855
459	H	0.752552	0.40176	0.026921
460	H	0.699954	0.379723	0.045007
461	H	0.728783	0.35361	0.051966
462	C	0.974184	0.300173	0.766538
463	C	0.511125	0.33806	0.75427
464	N	0.531267	0.369863	0.780088
465	C	0.51937	0.369014	0.817208
466	C	0.482527	0.333012	0.830866
467	C	0.958681	0.30032	0.804301
468	H	0.932498	0.27388	0.814413
469	C	0.548804	0.398654	0.843282
470	C	0.618657	0.455579	0.853055
471	C	0.619072	0.443995	0.892169
472	C	0.579508	0.412574	0.907395
473	N	0.585305	0.431562	0.829989
474	C	0.54373	0.390031	0.883481
475	C	0.505374	0.355968	0.89724
476	C	0.474227	0.328399	0.871045
477	H	0.501147	0.349126	0.926187
478	H	0.948413	0.301942	0.881652
479	H	0.577387	0.402196	0.935188
480	H	0.644757	0.47933	0.839991
481	C	0.03497	0.344956	0.717633
482	H	0.017988	0.349095	0.693684
483	H	0.539916	0.318438	0.71179
484	H	0.066115	0.373377	0.718768
485	C	0.619683	0.172547	0.433248
486	C	0.58176	0.171483	0.420922
487	N	0.550008	0.159906	0.446784
488	C	0.550856	0.148894	0.483924
489	C	0.586872	0.148081	0.49757
490	C	0.619564	0.156915	0.47101
491	H	0.646025	0.157219	0.481137
492	C	0.521224	0.148777	0.509942
493	C	0.964423	0.16188	0.519672
494	C	0.975887	0.173751	0.558824
495	C	0.507348	0.165659	0.574038
496	N	0.988346	0.152406	0.496626
497	C	0.529894	0.152409	0.550136
498	C	0.563946	0.148115	0.563935
499	C	0.591498	0.144477	0.53776
500	H	0.570796	0.15078	0.592879
501	H	0.617957	0.145137	0.548385
502	H	0.51771	0.17391	0.601836
503	H	0.940561	0.164073	0.50664
504	C	0.574915	0.18863	0.384383
505	H	0.570791	0.167624	0.360336
506	H	0.60146	0.220108	0.378647
507	H	0.546508	0.191377	0.38557
508	C	0.646596	0.499934	0.099846
509	C	0.645508	0.036809	0.087612
510	N	0.633847	0.056895	0.113491
511	C	0.622759	0.044917	0.150595
512	C	0.621929	0.008051	0.164167
513	C	0.630873	0.984313	0.137563
514	H	0.63118	0.458142	0.14764
515	C	0.622607	0.074368	0.17668
516	C	0.63563	0.144227	0.186503
517	C	0.647685	0.144636	0.225598
518	C	0.639603	0.105067	0.240766
519	N	0.626208	0.110876	0.163405
520	C	0.626249	0.069265	0.216853
521	C	0.621959	0.030898	0.230582
522	C	0.61832	0.999756	0.204348
523	H	0.624655	0.026677	0.259513
524	H	0.619006	0.973951	0.214922
525	H	0.647861	0.102914	0.268551
526	H	0.637945	0.170316	0.173441
527	C	0.662742	0.060925	0.051142
528	H	0.641809	0.544104	0.027035
529	H	0.694249	0.065918	0.045459
530	H	0.665448	0.092059	0.05239
531	C	0.919704	0.144955	0.766431
532	C	0.882873	0.106984	0.75416
533	N	0.862803	0.075228	0.780031
534	C	0.87474	0.076096	0.817145
535	C	0.911616	0.112148	0.830712
536	C	0.935401	0.144823	0.804104
537	H	0.961489	0.171319	0.814259
538	C	0.845325	0.046496	0.843247
539	C	0.775425	0.489733	0.85311
540	C	0.775045	0.501459	0.892181
541	C	0.814654	0.032828	0.907378
542	N	0.808787	0.013607	0.830006
543	C	0.850424	0.055283	0.883417
544	C	0.888799	0.089361	0.89713
545	C	0.919948	0.116836	0.870892
546	H	0.892986	0.09632	0.926054
547	H	0.945725	0.143389	0.881406
548	H	0.816796	0.043432	0.935086
549	H	0.749306	0.465988	0.840058
550	C	0.858767	0.100105	0.717685
551	H	0.875622	0.096049	0.693574
552	H	0.853736	0.126599	0.712021
553	H	0.827655	0.071648	0.71891
554	C	0.7749	0.273445	0.43306
555	C	0.8129	0.274614	0.420838
556	N	0.844641	0.286288	0.446723
557	C	0.843725	0.297307	0.483843
558	C	0.807647	0.298074	0.497408
559	C	0.774993	0.289183	0.470773
560	H	0.748484	0.28876	0.48092
561	C	0.873261	0.297423	0.509977
562	C	0.930052	0.284322	0.51986
563	C	0.91826	0.272118	0.558902
564	C	0.886823	0.280258	0.574085
565	N	0.906202	0.293844	0.496756
566	C	0.8644	0.293613	0.55013
567	C	0.830297	0.297887	0.563819
568	C	0.80292	0.301732	0.537578
569	H	0.823265	0.295005	0.592729
570	H	0.776276	0.300734	0.548127
571	H	0.876224	0.271807	0.601796
572	H	0.953845	0.282018	0.506825
573	C	0.819846	0.257473	0.38434
574	H	0.823855	0.278395	0.360252
575	H	0.793403	0.225923	0.37865
576	H	0.848346	0.254894	0.385547
577	C	0.697064	0.972868	0.017121
578	C	0.725626	0.965285	0.038499
579	C	0.724396	0.96196	0.07918
580	C	0.696995	0.972729	0.098744
581	C	0.669618	0.983552	0.079212
582	C	0.668442	0.980348	0.03852
583	H	0.746918	0.960205	0.024103
584	H	0.647205	0.985519	0.024133
585	H	0.696969	0.972679	0.128262
586	C	0.697077	0.972897	0.975494
587	C	0.734658	0.985803	0.954185
588	C	0.73591	0.985813	0.913325
589	C	0.697068	0.972786	0.894036
590	C	0.658233	0.959823	0.913311
591	C	0.659495	0.959949	0.954173
592	H	0.762147	0.995799	0.96893
593	H	0.697061	0.972726	0.864635
594	H	0.632008	0.949982	0.968913
595	C	0.946782	0.722607	0.683804
596	C	0.954312	0.75871	0.705229
597	C	0.957672	0.760756	0.745909
598	C	0.946892	0.72256	0.765427
599	C	0.936068	0.684386	0.745842
600	C	0.93929	0.686473	0.705154
601	H	0.959439	0.785114	0.690865
602	H	0.934143	0.660094	0.690727
603	H	0.946935	0.722547	0.794944
604	C	0.946819	0.722671	0.64218
605	C	0.933902	0.747351	0.620888
606	C	0.933959	0.748667	0.580032
607	C	0.947045	0.722911	0.560722
608	C	0.960041	0.697056	0.57998
609	C	0.959848	0.698114	0.620842
610	H	0.923855	0.764791	0.635651
611	H	0.94712	0.722989	0.531318
612	H	0.969818	0.680588	0.63557
613	C	0.697207	0.722708	0.35049
614	C	0.661122	0.694129	0.371933
615	C	0.659101	0.695462	0.412613
616	C	0.697295	0.722907	0.432113
617	C	0.735458	0.750268	0.412514
618	C	0.733348	0.751357	0.371826
619	H	0.634707	0.672846	0.357584
620	H	0.759703	0.772618	0.357387
621	H	0.697314	0.722983	0.46163
622	C	0.697126	0.722667	0.308861
623	C	0.672434	0.685074	0.287575
624	C	0.671158	0.683796	0.246714
625	C	0.696947	0.722626	0.227402
626	C	0.722827	0.761476	0.246652
627	C	0.721718	0.760242	0.287513
628	H	0.654958	0.657597	0.302341
629	H	0.696888	0.722617	0.198
630	H	0.739241	0.787741	0.302231
631	C	0.747386	0.945495	0.099745
632	C	0.74833	0.908546	0.087511
633	N	0.759965	0.888403	0.11335
634	C	0.770986	0.900306	0.150472
635	C	0.771835	0.93716	0.164105
636	C	0.763008	0.961	0.137519
637	H	0.762764	0.987196	0.147618
638	C	0.771157	0.870871	0.176567
639	C	0.758149	0.800998	0.186376
640	C	0.746189	0.800619	0.225496
641	C	0.754376	0.840202	0.240704
642	N	0.767526	0.834348	0.163291
643	C	0.767599	0.875967	0.216762
644	C	0.771904	0.914336	0.230497
645	C	0.775503	0.945476	0.204282
646	H	0.769292	0.918583	0.259438
647	H	0.77487	0.971299	0.214871
648	H	0.746073	0.842371	0.268468
649	H	0.755787	0.774897	0.173298
650	C	0.731437	0.884725	0.050855
651	H	0.752552	0.901761	0.026921
652	H	0.699954	0.879724	0.045007
653	H	0.728783	0.85361	0.051966
654	C	0.974185	0.800174	0.766538
655	C	0.511126	0.838061	0.75427
656	N	0.531267	0.869864	0.780088
657	C	0.519369	0.869014	0.817208
658	C	0.482526	0.833013	0.830866
659	C	0.958681	0.800319	0.804301
660	H	0.932498	0.773881	0.814413
661	C	0.548804	0.898654	0.843282
662	C	0.618657	0.955579	0.853055
663	C	0.619073	0.943995	0.892169
664	C	0.579508	0.912575	0.907395
665	N	0.585304	0.931559	0.829989
666	C	0.543729	0.890032	0.883481
667	C	0.505372	0.855966	0.89724
668	C	0.474228	0.8284	0.871045
669	H	0.501146	0.849124	0.926187
670	H	0.948413	0.801942	0.881655
671	H	0.577388	0.902197	0.935188
672	H	0.644758	0.979331	0.839991
673	C	0.03497	0.844956	0.717633
674	H	0.017986	0.849092	0.693684
675	H	0.539915	0.818439	0.71179
676	H	0.066114	0.873378	0.718768
677	C	0.619683	0.672546	0.433248
678	C	0.58176	0.671482	0.420922
679	N	0.550007	0.659905	0.446784
680	C	0.550857	0.648896	0.483924
681	C	0.586872	0.648081	0.49757
682	C	0.619564	0.656915	0.47101
683	H	0.646022	0.657218	0.481137
684	C	0.521224	0.648779	0.509942
685	C	0.964424	0.661881	0.519672
686	C	0.975888	0.673752	0.558824
687	C	0.507347	0.665657	0.574038
688	N	0.988347	0.652406	0.496626
689	C	0.529893	0.65241	0.550136
690	C	0.563946	0.648116	0.563935
691	C	0.591498	0.644475	0.53776
692	H	0.570796	0.65078	0.592879
693	H	0.617958	0.645139	0.548385
694	H	0.51771	0.67391	0.601836
695	H	0.940561	0.664072	0.50664
696	C	0.574915	0.688629	0.384383
697	H	0.57079	0.667624	0.360336
698	H	0.60146	0.72011	0.378647
699	H	0.54651	0.691379	0.38557
700	C	0.646596	0.999934	0.099845
701	C	0.645508	0.536808	0.087613
702	N	0.633847	0.556894	0.113492
703	C	0.622755	0.544915	0.150596
704	C	0.621926	0.508052	0.164168
705	C	0.630873	0.484312	0.137563
706	H	0.63118	0.958143	0.14764
707	C	0.622608	0.574369	0.176681
708	C	0.635629	0.644226	0.186504
709	C	0.647685	0.644637	0.225598
710	C	0.639603	0.605067	0.240767
711	N	0.626209	0.610876	0.163406
712	C	0.626248	0.569264	0.216853
713	C	0.621958	0.530897	0.230582
714	C	0.618321	0.499758	0.204348
715	H	0.624655	0.526676	0.259514
716	H	0.619008	0.473954	0.214922
717	H	0.647861	0.602914	0.268551
718	H	0.637946	0.670317	0.173441
719	C	0.66274	0.560926	0.051142
720	H	0.641811	0.044103	0.027035
721	H	0.694249	0.565917	0.045459
722	H	0.665445	0.592059	0.05239
723	C	0.919705	0.644955	0.766431
724	C	0.882872	0.606983	0.75416
725	N	0.862803	0.575228	0.780031
726	C	0.87474	0.576096	0.817145
727	C	0.911616	0.612149	0.830712
728	C	0.935401	0.644823	0.804104
729	H	0.961489	0.671318	0.814259
730	C	0.845322	0.546494	0.843247
731	C	0.775425	0.989734	0.85311
732	C	0.775045	0.001458	0.892181
733	C	0.814653	0.532826	0.907378
734	N	0.808788	0.513608	0.830006
735	C	0.850422	0.555284	0.883417
736	C	0.8888	0.589363	0.89713
737	C	0.919948	0.616837	0.870895
738	H	0.892987	0.596321	0.926054
739	H	0.945725	0.643389	0.881406
740	H	0.816795	0.543432	0.935086
741	H	0.749306	0.965989	0.840058
742	C	0.858767	0.600104	0.717685
743	H	0.875623	0.59605	0.693574
744	H	0.853736	0.626599	0.712021
745	H	0.827655	0.571648	0.71891
746	C	0.7749	0.773445	0.43306
747	C	0.8129	0.774613	0.420838
748	N	0.844642	0.786289	0.446723
749	C	0.843726	0.797307	0.483843
750	C	0.807648	0.798075	0.497408
751	C	0.774991	0.789184	0.470773
752	H	0.748484	0.788761	0.48092
753	C	0.87326	0.797421	0.509977
754	C	0.930052	0.784322	0.51986
755	C	0.918261	0.772119	0.558902
756	C	0.886824	0.780258	0.574085
757	N	0.906202	0.793844	0.496756
758	C	0.8644	0.793613	0.550133
759	C	0.830297	0.797885	0.563819
760	C	0.802917	0.801731	0.537578
761	H	0.823263	0.795006	0.592731
762	H	0.776276	0.800733	0.548127
763	H	0.876224	0.771807	0.601796
764	H	0.953844	0.782017	0.506825
765	C	0.819846	0.757473	0.38434
766	H	0.823855	0.778396	0.360252
767	H	0.793402	0.725923	0.37865
768	H	0.848346	0.754893	0.385547
769	C	0.197062	0.472868	0.509123
770	C	0.225625	0.465284	0.530501
771	C	0.224395	0.461959	0.571182
772	C	0.196994	0.472729	0.590747
773	C	0.169617	0.483552	0.571214
774	C	0.168442	0.48035	0.530522
775	H	0.246917	0.460204	0.516105
776	H	0.147204	0.485519	0.516135
777	H	0.196968	0.472678	0.620264
778	C	0.197077	0.472896	0.467496
779	C	0.234658	0.485806	0.446187
780	C	0.235909	0.485812	0.405327
781	C	0.197067	0.472785	0.386038
782	C	0.158233	0.459825	0.405313
783	C	0.159494	0.459948	0.446175
784	H	0.262146	0.495798	0.460932
785	H	0.19706	0.472725	0.356637
786	H	0.132009	0.449984	0.460915
787	C	0.446779	0.222608	0.175806
788	C	0.454312	0.25871	0.197231
789	C	0.457672	0.260756	0.237911
790	C	0.446892	0.222559	0.257426
791	C	0.436064	0.184385	0.237844
792	C	0.439291	0.186473	0.197156
793	H	0.45944	0.285116	0.182865
794	H	0.434142	0.160093	0.182729
795	H	0.446932	0.222547	0.286946
796	C	0.446819	0.222672	0.134182
797	C	0.433902	0.24735	0.11289
798	C	0.43396	0.248668	0.0720341
799	C	0.447045	0.22291	0.0527241
800	C	0.460041	0.197055	0.0719821
801	C	0.459848	0.198113	0.112844
802	H	0.423855	0.264791	0.127653
803	H	0.447118	0.222991	0.0233201
804	H	0.469818	0.180587	0.127572
805	C	0.197205	0.222707	0.842492
806	C	0.161122	0.19413	0.863935
807	C	0.1591	0.19546	0.904615
808	C	0.197296	0.222908	0.924115
809	C	0.235456	0.250266	0.904516
810	C	0.233348	0.251357	0.863828
811	H	0.134706	0.172845	0.849586
812	H	0.259703	0.272617	0.849389
813	H	0.197314	0.222983	0.953632
814	C	0.197127	0.222669	0.800863
815	C	0.172433	0.185073	0.779576
816	C	0.171157	0.183796	0.738716
817	C	0.196947	0.222627	0.719404
818	C	0.222827	0.261475	0.738654
819	C	0.221718	0.260241	0.779515
820	H	0.154956	0.157596	0.794343
821	H	0.196886	0.222617	0.690001
822	H	0.239242	0.287742	0.794233
823	C	0.247386	0.445494	0.591747
824	C	0.24833	0.408545	0.579513
825	N	0.259964	0.388402	0.605352
826	C	0.270985	0.400305	0.642474
827	C	0.271834	0.437159	0.656107
828	C	0.263007	0.461	0.629521
829	H	0.262763	0.487195	0.63962
830	C	0.271155	0.37087	0.668569
831	C	0.258148	0.300998	0.678378
832	C	0.246188	0.300619	0.717498
833	C	0.254377	0.340204	0.732706
834	N	0.267525	0.334347	0.655293
835	C	0.267599	0.375966	0.708763
836	C	0.271904	0.414336	0.722499
837	C	0.275503	0.445475	0.696284
838	H	0.26929	0.418582	0.75144
839	H	0.27487	0.471302	0.706873
840	H	0.246072	0.34237	0.76047
841	H	0.255785	0.274897	0.6653
842	C	0.231435	0.384724	0.542857
843	H	0.252552	0.40176	0.518923
844	H	0.199953	0.379723	0.537009
845	H	0.228782	0.35361	0.543968
846	C	0.474184	0.300173	0.25854
847	C	0.011125	0.33806	0.246272
848	N	0.031267	0.369863	0.27209
849	C	0.019368	0.369014	0.30921
850	C	0.982527	0.333012	0.322868
851	C	0.458681	0.30032	0.296303
852	H	0.432495	0.27388	0.306415
853	C	0.048803	0.398654	0.335284
854	C	0.118656	0.455579	0.345057
855	C	0.119072	0.443995	0.384171
856	C	0.079507	0.412574	0.399397
857	N	0.085305	0.431562	0.321991
858	C	0.043728	0.390031	0.375483
859	C	0.005373	0.355968	0.389242
860	C	0.974227	0.328399	0.363047
861	H	0.001147	0.349126	0.418189
862	H	0.448413	0.301942	0.373654
863	H	0.077387	0.402196	0.42719
864	H	0.144757	0.47933	0.331993
865	C	0.53497	0.344956	0.209635
866	H	0.51799	0.349095	0.185686
867	H	0.039914	0.318438	0.203792
868	H	0.566114	0.373377	0.21077
869	C	0.119684	0.172547	0.92525
870	C	0.081759	0.171483	0.912924
871	N	0.050007	0.159906	0.938786
872	C	0.050856	0.148894	0.975926
873	C	0.086872	0.148081	0.989572
874	C	0.119564	0.156915	0.963012
875	H	0.146023	0.157219	0.973139
876	C	0.021223	0.148777	0.00194407
877	C	0.464423	0.16188	0.0116741
878	C	0.475887	0.173751	0.0508261
879	C	0.007347	0.165659	0.0660401
880	N	0.488346	0.152406	0.988628
881	C	0.029893	0.152409	0.0421381
882	C	0.063946	0.148115	0.0559371
883	C	0.091498	0.144477	0.0297621
884	H	0.070795	0.15078	0.0848811
885	H	0.117958	0.145137	0.0403871
886	H	0.017709	0.17391	0.0938381
887	H	0.440561	0.164073	0.998642
888	C	0.074915	0.18863	0.876385
889	H	0.07079	0.167624	0.852338
890	H	0.101459	0.220108	0.870649
891	H	0.046509	0.191377	0.877572
892	C	0.146596	0.499934	0.591848
893	C	0.145509	0.036809	0.579614
894	N	0.133846	0.056895	0.605493
895	C	0.122757	0.044917	0.642597
896	C	0.121927	0.008051	0.656169
897	C	0.130873	0.984313	0.629565
898	H	0.131179	0.458142	0.639642
899	C	0.122606	0.074368	0.668682
900	C	0.135629	0.144227	0.678505
901	C	0.147685	0.144636	0.7176
902	C	0.139601	0.105067	0.732768
903	N	0.126207	0.110876	0.655407
904	C	0.126248	0.069265	0.708855
905	C	0.121958	0.030898	0.722584
906	C	0.118321	0.999756	0.69635
907	H	0.124654	0.026677	0.751515
908	H	0.119004	0.973951	0.706924
909	H	0.147861	0.102914	0.760553
910	H	0.137946	0.170316	0.665443
911	C	0.162741	0.060925	0.543144
912	H	0.141809	0.544104	0.519037
913	H	0.19425	0.065918	0.537461
914	H	0.165446	0.092059	0.544392
915	C	0.419704	0.144955	0.258433
916	C	0.382873	0.106984	0.246162
917	N	0.362803	0.075228	0.272033
918	C	0.37474	0.076096	0.309147
919	C	0.411616	0.112148	0.322714
920	C	0.435401	0.144823	0.296106
921	H	0.461489	0.171319	0.306261
922	C	0.345322	0.046496	0.335249
923	C	0.275424	0.489733	0.345112
924	C	0.275046	0.501459	0.384183
925	C	0.314654	0.032828	0.39938
926	N	0.308787	0.013607	0.322008
927	C	0.350422	0.055283	0.375419
928	C	0.388799	0.089361	0.389132
929	C	0.419948	0.116836	0.362894
930	H	0.392986	0.09632	0.418056
931	H	0.445725	0.143389	0.373408
932	H	0.316796	0.043432	0.427088
933	H	0.249306	0.465988	0.33206
934	C	0.358767	0.100105	0.209687
935	H	0.375622	0.096049	0.185576
936	H	0.353733	0.126599	0.204023
937	H	0.327653	0.071648	0.210912
938	C	0.2749	0.273445	0.925062
939	C	0.312901	0.274614	0.91284
940	N	0.344641	0.286288	0.938725
941	C	0.343725	0.297307	0.975845
942	C	0.307647	0.298074	0.98941
943	C	0.274991	0.289183	0.962775
944	H	0.248484	0.28876	0.972922
945	C	0.37326	0.297423	0.00197907
946	C	0.430052	0.284322	0.0118621
947	C	0.41826	0.272118	0.0509041
948	C	0.386822	0.280258	0.0660871
949	N	0.406201	0.293844	0.988758
950	C	0.3644	0.293613	0.0421321
951	C	0.330297	0.297887	0.0558211
952	C	0.302918	0.301732	0.0295801
953	H	0.323263	0.295005	0.0847311
954	H	0.276276	0.300734	0.0401291
955	H	0.376223	0.271807	0.0937981
956	H	0.453845	0.282018	0.998827
957	C	0.319845	0.257473	0.876342
958	H	0.323855	0.278395	0.852254
959	H	0.293401	0.225923	0.870652
960	H	0.348347	0.254894	0.877549
961	C	0.197064	0.972868	0.509123
962	C	0.225626	0.965285	0.530501
963	C	0.224395	0.96196	0.571182
964	C	0.196994	0.972729	0.590746
965	C	0.169617	0.983552	0.571214
966	C	0.168441	0.980348	0.530522
967	H	0.246918	0.960205	0.516105
968	H	0.147203	0.985519	0.516135
969	H	0.196969	0.972679	0.620264
970	C	0.197078	0.972897	0.467496
971	C	0.234657	0.985803	0.446187
972	C	0.235909	0.985813	0.405327
973	C	0.197069	0.972786	0.386038
974	C	0.158233	0.959823	0.405313
975	C	0.159494	0.959949	0.446175
976	H	0.262146	0.995799	0.460932
977	H	0.197061	0.972726	0.356637
978	H	0.132007	0.949982	0.460915
979	C	0.44678	0.722607	0.175806
980	C	0.454311	0.75871	0.197231
981	C	0.457671	0.760756	0.237911
982	C	0.446891	0.72256	0.257429
983	C	0.436066	0.684386	0.237844
984	C	0.439289	0.686473	0.197156
985	H	0.459439	0.785114	0.182867
986	H	0.434141	0.660094	0.182729
987	H	0.446933	0.722547	0.286946
988	C	0.446818	0.722671	0.134182
989	C	0.433902	0.747351	0.11289
990	C	0.43396	0.748667	0.0720341
991	C	0.447044	0.722911	0.0527241
992	C	0.46004	0.697056	0.0719821
993	C	0.459847	0.698114	0.112844
994	H	0.423855	0.764791	0.127653
995	H	0.447118	0.722989	0.0233201
996	H	0.469817	0.680588	0.127572
997	C	0.197205	0.722708	0.842492
998	C	0.161121	0.694129	0.863935
999	C	0.1591	0.695462	0.904615
1000	C	0.197296	0.722907	0.924115
1001	C	0.235457	0.750268	0.904516
1002	C	0.233348	0.751357	0.863828
1003	H	0.134707	0.672846	0.849586
1004	H	0.259703	0.772618	0.849389
1005	H	0.197314	0.722983	0.953632
1006	C	0.197126	0.722667	0.800863
1007	C	0.172434	0.685074	0.779577
1008	C	0.171157	0.683796	0.738716
1009	C	0.196947	0.722626	0.719404
1010	C	0.222828	0.761476	0.738654
1011	C	0.221718	0.760242	0.779515
1012	H	0.154957	0.657597	0.794343
1013	H	0.196886	0.722617	0.690002
1014	H	0.239242	0.787741	0.794233
1015	C	0.247386	0.945495	0.591747
1016	C	0.24833	0.908546	0.579513
1017	N	0.259964	0.888403	0.605352
1018	C	0.270985	0.900306	0.642474
1019	C	0.271835	0.93716	0.656107
1020	C	0.263007	0.961	0.629521
1021	H	0.262764	0.987196	0.63962
1022	C	0.271155	0.870871	0.668569
1023	C	0.258148	0.800998	0.678378
1024	C	0.246188	0.800619	0.717498
1025	C	0.254375	0.840202	0.732706
1026	N	0.267525	0.834348	0.655293
1027	C	0.2676	0.875967	0.708764
1028	C	0.271904	0.914336	0.722499
1029	C	0.275503	0.945476	0.696284
1030	H	0.26929	0.918583	0.75144
1031	H	0.274869	0.971299	0.706873
1032	H	0.246072	0.842371	0.76047
1033	H	0.255785	0.774897	0.6653
1034	C	0.231436	0.884725	0.542857
1035	H	0.252553	0.901761	0.518923
1036	H	0.199953	0.879724	0.537009
1037	H	0.228782	0.85361	0.543968
1038	C	0.474184	0.800174	0.25854
1039	C	0.011125	0.838061	0.246272
1040	N	0.031267	0.869864	0.27209
1041	C	0.019367	0.869014	0.30921
1042	C	0.982527	0.833013	0.322868
1043	C	0.458681	0.800319	0.296303
1044	H	0.432496	0.773881	0.306415
1045	C	0.048804	0.898654	0.335284
1046	C	0.118655	0.955579	0.345057
1047	C	0.119073	0.943995	0.384171
1048	C	0.079506	0.912575	0.399397
1049	N	0.085304	0.931559	0.321991
1050	C	0.043728	0.890032	0.375483
1051	C	0.005373	0.855966	0.389242
1052	C	0.974227	0.8284	0.363047
1053	H	0.001145	0.849124	0.418189
1054	H	0.448413	0.801942	0.373657
1055	H	0.077388	0.902197	0.42719
1056	H	0.144757	0.979331	0.331993
1057	C	0.53497	0.844956	0.209635
1058	H	0.517987	0.849092	0.185686
1059	H	0.039913	0.818439	0.203792
1060	H	0.566115	0.873378	0.21077
1061	C	0.119683	0.672546	0.92525
1062	C	0.081759	0.671482	0.912924
1063	N	0.050007	0.659905	0.938786
1064	C	0.050857	0.648896	0.975926
1065	C	0.086871	0.648081	0.989572
1066	C	0.119564	0.656915	0.963012
1067	H	0.146023	0.657218	0.973139
1068	C	0.021225	0.648779	0.00194407
1069	C	0.464423	0.661881	0.0116741
1070	C	0.475886	0.673752	0.0508261
1071	C	0.007347	0.665657	0.0660401
1072	N	0.488346	0.652406	0.988628
1073	C	0.029892	0.65241	0.0421381
1074	C	0.063946	0.648116	0.0559371
1075	C	0.091497	0.644475	0.0297621
1076	H	0.070795	0.65078	0.0848811
1077	H	0.117958	0.645139	0.0403871
1078	H	0.017708	0.67391	0.0938381
1079	H	0.440561	0.664072	0.998642
1080	C	0.074914	0.688629	0.876385
1081	H	0.070789	0.667624	0.852338
1082	H	0.101459	0.72011	0.870649
1083	H	0.046509	0.691379	0.877572
1084	C	0.146597	0.999934	0.591847
1085	C	0.145508	0.536808	0.579615
1086	N	0.133845	0.556894	0.605494
1087	C	0.122756	0.544915	0.642598
1088	C	0.121927	0.508052	0.65617
1089	C	0.130872	0.484312	0.629565
1090	H	0.13118	0.958143	0.639642
1091	C	0.122606	0.574369	0.668683
1092	C	0.135629	0.644226	0.678506
1093	C	0.147685	0.644637	0.7176
1094	C	0.139601	0.605067	0.732769
1095	N	0.126207	0.610876	0.655408
1096	C	0.126248	0.569264	0.708855
1097	C	0.121958	0.530897	0.722584
1098	C	0.118321	0.499758	0.69635
1099	H	0.124654	0.526676	0.751516
1100	H	0.119007	0.473954	0.706924
1101	H	0.147861	0.602914	0.760553
1102	H	0.137947	0.670317	0.665443
1103	C	0.16274	0.560926	0.543144
1104	H	0.14181	0.044103	0.519037
1105	H	0.194249	0.565917	0.537461
1106	H	0.165445	0.592059	0.544392
1107	C	0.419705	0.644955	0.258433
1108	C	0.382873	0.606983	0.246162
1109	N	0.362802	0.575228	0.272033
1110	C	0.37474	0.576096	0.309147
1111	C	0.411615	0.612149	0.322714
1112	C	0.4354	0.644823	0.296106
1113	H	0.461489	0.671318	0.306261
1114	C	0.345322	0.546494	0.335249
1115	C	0.275424	0.989734	0.345112
1116	C	0.275045	0.001458	0.384183
1117	C	0.314653	0.532826	0.39938
1118	N	0.308786	0.513608	0.322008
1119	C	0.350423	0.555284	0.375419
1120	C	0.388799	0.589363	0.389132
1121	C	0.419947	0.616837	0.362897
1122	H	0.392987	0.596321	0.418056
1123	H	0.445725	0.643389	0.373408
1124	H	0.316794	0.543432	0.427088
1125	H	0.249306	0.965989	0.33206
1126	C	0.358768	0.600104	0.209687
1127	H	0.375623	0.59605	0.185576
1128	H	0.353735	0.626599	0.204023
1129	H	0.327653	0.571648	0.210912
1130	C	0.2749	0.773445	0.925062
1131	C	0.3129	0.774613	0.91284
1132	N	0.34464	0.786289	0.938725
1133	C	0.343725	0.797307	0.975845
1134	C	0.307647	0.798075	0.98941
1135	C	0.274991	0.789184	0.962775
1136	H	0.248484	0.788761	0.972922
1137	C	0.373259	0.797421	0.00197907
1138	C	0.430051	0.784322	0.0118621
1139	C	0.418261	0.772119	0.0509041
1140	C	0.386822	0.780258	0.0660871
1141	N	0.4062	0.793844	0.988758
1142	C	0.3644	0.793613	0.0421351
1143	C	0.330296	0.797885	0.0558211
1144	C	0.302917	0.801731	0.0295801
1145	H	0.323263	0.795006	0.0847331
1146	H	0.276275	0.800733	0.0401291
1147	H	0.376222	0.771807	0.0937981
1148	H	0.453843	0.782017	0.998827
1149	C	0.319845	0.757473	0.876342
1150	H	0.323855	0.778396	0.852254
1151	H	0.2934	0.725923	0.870652
1152	H	0.348346	0.754893	0.877549
1153	C	0.697063	0.472868	0.509123
1154	C	0.725626	0.465284	0.530501
1155	C	0.724396	0.461959	0.571182
1156	C	0.696994	0.472729	0.590747
1157	C	0.669619	0.483552	0.571214
1158	C	0.668442	0.48035	0.530522
1159	H	0.746918	0.460204	0.516105
1160	H	0.647206	0.485519	0.516135
1161	H	0.696969	0.472678	0.620264
1162	C	0.697078	0.472896	0.467496
1163	C	0.734659	0.485806	0.446187
1164	C	0.735909	0.485812	0.405327
1165	C	0.697069	0.472785	0.386038
1166	C	0.658234	0.459825	0.405313
1167	C	0.659494	0.459948	0.446175
1168	H	0.762147	0.495798	0.460932
1169	H	0.697061	0.472725	0.356637
1170	H	0.632009	0.449984	0.460915
1171	C	0.946782	0.222608	0.175806
1172	C	0.954312	0.25871	0.197231
1173	C	0.957672	0.260756	0.237911
1174	C	0.946892	0.222559	0.257426
1175	C	0.936067	0.184385	0.237844
1176	C	0.939291	0.186473	0.197156
1177	H	0.95944	0.285116	0.182865
1178	H	0.934142	0.160093	0.182729
1179	H	0.946935	0.222547	0.286946
1180	C	0.946819	0.222672	0.134182
1181	C	0.933902	0.24735	0.11289
1182	C	0.933963	0.248668	0.0720341
1183	C	0.947045	0.22291	0.0527241
1184	C	0.960041	0.197055	0.0719821
1185	C	0.959848	0.198113	0.112844
1186	H	0.923858	0.264791	0.127653
1187	H	0.947121	0.222991	0.0233201
1188	H	0.969818	0.180587	0.127572
1189	C	0.697206	0.222707	0.842492
1190	C	0.661123	0.19413	0.863935
1191	C	0.6591	0.19546	0.904615
1192	C	0.697298	0.222908	0.924115
1193	C	0.735457	0.250266	0.904516
1194	C	0.733348	0.251357	0.863828
1195	H	0.634707	0.172845	0.849586
1196	H	0.759705	0.272617	0.849389
1197	H	0.697314	0.222983	0.953632
1198	C	0.697127	0.222669	0.800863
1199	C	0.672434	0.185073	0.779576
1200	C	0.671158	0.183796	0.738716
1201	C	0.696947	0.222627	0.719404
1202	C	0.722827	0.261475	0.738654
1203	C	0.721718	0.260241	0.779515
1204	H	0.654957	0.157596	0.794343
1205	H	0.696888	0.222617	0.690001
1206	H	0.739244	0.287742	0.794233
1207	C	0.747385	0.445494	0.591747
1208	C	0.74833	0.408545	0.579513
1209	N	0.759965	0.388402	0.605352
1210	C	0.770986	0.400305	0.642474
1211	C	0.771834	0.437159	0.656107
1212	C	0.763007	0.461	0.629521
1213	H	0.762765	0.487195	0.63962
1214	C	0.771156	0.37087	0.668569
1215	C	0.758149	0.300998	0.678378
1216	C	0.746188	0.300619	0.717498
1217	C	0.754377	0.340204	0.732706
1218	N	0.767526	0.334347	0.655293
1219	C	0.767599	0.375966	0.708763
1220	C	0.771904	0.414336	0.722499
1221	C	0.775503	0.445475	0.696284
1222	H	0.769291	0.418582	0.75144
1223	H	0.774871	0.471302	0.706873
1224	H	0.746073	0.34237	0.76047
1225	H	0.755787	0.274897	0.6653
1226	C	0.731437	0.384724	0.542857
1227	H	0.752552	0.40176	0.518923
1228	H	0.699954	0.379723	0.537009
1229	H	0.728783	0.35361	0.543968
1230	C	0.974184	0.300173	0.25854
1231	C	0.511125	0.33806	0.246272
1232	N	0.531267	0.369863	0.27209
1233	C	0.51937	0.369014	0.30921
1234	C	0.482527	0.333012	0.322868
1235	C	0.958681	0.30032	0.296303
1236	H	0.932498	0.27388	0.306415
1237	C	0.548804	0.398654	0.335284
1238	C	0.618657	0.455579	0.345057
1239	C	0.619072	0.443995	0.384171
1240	C	0.579508	0.412574	0.399397
1241	N	0.585305	0.431562	0.321991
1242	C	0.54373	0.390031	0.375483
1243	C	0.505374	0.355968	0.389242
1244	C	0.474227	0.328399	0.363047
1245	H	0.501147	0.349126	0.418189
1246	H	0.948413	0.301942	0.373654
1247	H	0.577387	0.402196	0.42719
1248	H	0.644757	0.47933	0.331993
1249	C	0.03497	0.344956	0.209635
1250	H	0.017988	0.349095	0.185686
1251	H	0.539916	0.318438	0.203792
1252	H	0.066115	0.373377	0.21077
1253	C	0.619683	0.172547	0.92525
1254	C	0.58176	0.171483	0.912924
1255	N	0.550008	0.159906	0.938786
1256	C	0.550856	0.148894	0.975926
1257	C	0.586872	0.148081	0.989572
1258	C	0.619564	0.156915	0.963012
1259	H	0.646025	0.157219	0.973139
1260	C	0.521224	0.148777	0.00194407
1261	C	0.964423	0.16188	0.0116741
1262	C	0.975887	0.173751	0.0508261
1263	C	0.507348	0.165659	0.0660401
1264	N	0.988346	0.152406	0.988628
1265	C	0.529894	0.152409	0.0421381
1266	C	0.563946	0.148115	0.0559371
1267	C	0.591498	0.144477	0.0297621
1268	H	0.570796	0.15078	0.0848811
1269	H	0.617957	0.145137	0.0403871
1270	H	0.51771	0.17391	0.0938381
1271	H	0.940561	0.164073	0.998642
1272	C	0.574915	0.18863	0.876385
1273	H	0.570791	0.167624	0.852338
1274	H	0.60146	0.220108	0.870649
1275	H	0.546508	0.191377	0.877572
1276	C	0.646596	0.499934	0.591848
1277	C	0.645508	0.036809	0.579614
1278	N	0.633847	0.056895	0.605493
1279	C	0.622759	0.044917	0.642597
1280	C	0.621929	0.008051	0.656169
1281	C	0.630873	0.984313	0.629565
1282	H	0.63118	0.458142	0.639642
1283	C	0.622607	0.074368	0.668682
1284	C	0.63563	0.144227	0.678505
1285	C	0.647685	0.144636	0.7176
1286	C	0.639603	0.105067	0.732768
1287	N	0.626208	0.110876	0.655407
1288	C	0.626249	0.069265	0.708855
1289	C	0.621959	0.030898	0.722584
1290	C	0.61832	0.999756	0.69635
1291	H	0.624655	0.026677	0.751515
1292	H	0.619006	0.973951	0.706924
1293	H	0.647861	0.102914	0.760553
1294	H	0.637945	0.170316	0.665443
1295	C	0.662742	0.060925	0.543144
1296	H	0.641809	0.544104	0.519037
1297	H	0.694249	0.065918	0.537461
1298	H	0.665448	0.092059	0.544392
1299	C	0.919704	0.144955	0.258433
1300	C	0.882873	0.106984	0.246162
1301	N	0.862803	0.075228	0.272033
1302	C	0.87474	0.076096	0.309147
1303	C	0.911616	0.112148	0.322714
1304	C	0.935401	0.144823	0.296106
1305	H	0.961489	0.171319	0.306261
1306	C	0.845325	0.046496	0.335249
1307	C	0.775425	0.489733	0.345112
1308	C	0.775045	0.501459	0.384183
1309	C	0.814654	0.032828	0.39938
1310	N	0.808787	0.013607	0.322008
1311	C	0.850424	0.055283	0.375419
1312	C	0.888799	0.089361	0.389132
1313	C	0.919948	0.116836	0.362894
1314	H	0.892986	0.09632	0.418056
1315	H	0.945725	0.143389	0.373408
1316	H	0.816796	0.043432	0.427088
1317	H	0.749306	0.465988	0.33206
1318	C	0.858767	0.100105	0.209687
1319	H	0.875622	0.096049	0.185576
1320	H	0.853736	0.126599	0.204023
1321	H	0.827655	0.071648	0.210912
1322	C	0.7749	0.273445	0.925062
1323	C	0.8129	0.274614	0.91284
1324	N	0.844641	0.286288	0.938725
1325	C	0.843725	0.297307	0.975845
1326	C	0.807647	0.298074	0.98941
1327	C	0.774993	0.289183	0.962775
1328	H	0.748484	0.28876	0.972922
1329	C	0.873261	0.297423	0.00197907
1330	C	0.930052	0.284322	0.0118621
1331	C	0.91826	0.272118	0.0509041
1332	C	0.886823	0.280258	0.0660871
1333	N	0.906202	0.293844	0.988758
1334	C	0.8644	0.293613	0.0421321
1335	C	0.830297	0.297887	0.0558211
1336	C	0.80292	0.301732	0.0295801
1337	H	0.823265	0.295005	0.0847311
1338	H	0.776276	0.300734	0.0401291
1339	H	0.876224	0.271807	0.0937981
1340	H	0.953845	0.282018	0.998827
1341	C	0.819846	0.257473	0.876342
1342	H	0.823855	0.278395	0.852254
1343	H	0.793403	0.225923	0.870652
1344	H	0.848346	0.254894	0.877549
1345	C	0.697064	0.972868	0.509123
1346	C	0.725626	0.965285	0.530501
1347	C	0.724396	0.96196	0.571182
1348	C	0.696995	0.972729	0.590746
1349	C	0.669618	0.983552	0.571214
1350	C	0.668442	0.980348	0.530522
1351	H	0.746918	0.960205	0.516105
1352	H	0.647205	0.985519	0.516135
1353	H	0.696969	0.972679	0.620264
1354	C	0.697077	0.972897	0.467496
1355	C	0.734658	0.985803	0.446187
1356	C	0.73591	0.985813	0.405327
1357	C	0.697068	0.972786	0.386038
1358	C	0.658233	0.959823	0.405313
1359	C	0.659495	0.959949	0.446175
1360	H	0.762147	0.995799	0.460932
1361	H	0.697061	0.972726	0.356637
1362	H	0.632008	0.949982	0.460915
1363	C	0.946782	0.722607	0.175806
1364	C	0.954312	0.75871	0.197231
1365	C	0.957672	0.760756	0.237911
1366	C	0.946892	0.72256	0.257429
1367	C	0.936068	0.684386	0.237844
1368	C	0.93929	0.686473	0.197156
1369	H	0.959439	0.785114	0.182867
1370	H	0.934143	0.660094	0.182729
1371	H	0.946935	0.722547	0.286946
1372	C	0.946819	0.722671	0.134182
1373	C	0.933902	0.747351	0.11289
1374	C	0.933959	0.748667	0.0720341
1375	C	0.947045	0.722911	0.0527241
1376	C	0.960041	0.697056	0.0719821
1377	C	0.959848	0.698114	0.112844
1378	H	0.923855	0.764791	0.127653
1379	H	0.94712	0.722989	0.0233201
1380	H	0.969818	0.680588	0.127572
1381	C	0.697207	0.722708	0.842492
1382	C	0.661122	0.694129	0.863935
1383	C	0.659101	0.695462	0.904615
1384	C	0.697295	0.722907	0.924115
1385	C	0.735458	0.750268	0.904516
1386	C	0.733348	0.751357	0.863828
1387	H	0.634707	0.672846	0.849586
1388	H	0.759703	0.772618	0.849389
1389	H	0.697314	0.722983	0.953632
1390	C	0.697126	0.722667	0.800863
1391	C	0.672434	0.685074	0.779577
1392	C	0.671158	0.683796	0.738716
1393	C	0.696947	0.722626	0.719404
1394	C	0.722827	0.761476	0.738654
1395	C	0.721718	0.760242	0.779515
1396	H	0.654958	0.657597	0.794343
1397	H	0.696888	0.722617	0.690002
1398	H	0.739241	0.787741	0.794233
1399	C	0.747386	0.945495	0.591747
1400	C	0.74833	0.908546	0.579513
1401	N	0.759965	0.888403	0.605352
1402	C	0.770986	0.900306	0.642474
1403	C	0.771835	0.93716	0.656107
1404	C	0.763008	0.961	0.629521
1405	H	0.762764	0.987196	0.63962
1406	C	0.771157	0.870871	0.668569
1407	C	0.758149	0.800998	0.678378
1408	C	0.746189	0.800619	0.717498
1409	C	0.754376	0.840202	0.732706
1410	N	0.767526	0.834348	0.655293
1411	C	0.767599	0.875967	0.708764
1412	C	0.771904	0.914336	0.722499
1413	C	0.775503	0.945476	0.696284
1414	H	0.769292	0.918583	0.75144
1415	H	0.77487	0.971299	0.706873
1416	H	0.746073	0.842371	0.76047
1417	H	0.755787	0.774897	0.6653
1418	C	0.731437	0.884725	0.542857
1419	H	0.752552	0.901761	0.518923
1420	H	0.699954	0.879724	0.537009
1421	H	0.728783	0.85361	0.543968
1422	C	0.974185	0.800174	0.25854
1423	C	0.511126	0.838061	0.246272
1424	N	0.531267	0.869864	0.27209
1425	C	0.519369	0.869014	0.30921
1426	C	0.482526	0.833013	0.322868
1427	C	0.958681	0.800319	0.296303
1428	H	0.932498	0.773881	0.306415
1429	C	0.548804	0.898654	0.335284
1430	C	0.618657	0.955579	0.345057
1431	C	0.619073	0.943995	0.384171
1432	C	0.579508	0.912575	0.399397
1433	N	0.585304	0.931559	0.321991
1434	C	0.543729	0.890032	0.375483
1435	C	0.505372	0.855966	0.389242
1436	C	0.474228	0.8284	0.363047
1437	H	0.501146	0.849124	0.418189
1438	H	0.948413	0.801942	0.373657
1439	H	0.577388	0.902197	0.42719
1440	H	0.644758	0.979331	0.331993
1441	C	0.03497	0.844956	0.209635
1442	H	0.017986	0.849092	0.185686
1443	H	0.539915	0.818439	0.203792
1444	H	0.066114	0.873378	0.21077
1445	C	0.619683	0.672546	0.92525
1446	C	0.58176	0.671482	0.912924
1447	N	0.550007	0.659905	0.938786
1448	C	0.550857	0.648896	0.975926
1449	C	0.586872	0.648081	0.989572
1450	C	0.619564	0.656915	0.963012
1451	H	0.646022	0.657218	0.973139
1452	C	0.521224	0.648779	0.00194407
1453	C	0.964424	0.661881	0.0116741
1454	C	0.975888	0.673752	0.0508261
1455	C	0.507347	0.665657	0.0660401
1456	N	0.988347	0.652406	0.988628
1457	C	0.529893	0.65241	0.0421381
1458	C	0.563946	0.648116	0.0559371
1459	C	0.591498	0.644475	0.0297621
1460	H	0.570796	0.65078	0.0848811
1461	H	0.617958	0.645139	0.0403871
1462	H	0.51771	0.67391	0.0938381
1463	H	0.940561	0.664072	0.998642
1464	C	0.574915	0.688629	0.876385
1465	H	0.57079	0.667624	0.852338
1466	H	0.60146	0.72011	0.870649
1467	H	0.54651	0.691379	0.877572
1468	C	0.646596	0.999934	0.591847
1469	C	0.645508	0.536808	0.579615
1470	N	0.633847	0.556894	0.605494
1471	C	0.622755	0.544915	0.642598
1472	C	0.621926	0.508052	0.65617
1473	C	0.630873	0.484312	0.629565
1474	H	0.63118	0.958143	0.639642
1475	C	0.622608	0.574369	0.668683
1476	C	0.635629	0.644226	0.678506
1477	C	0.647685	0.644637	0.7176
1478	C	0.639603	0.605067	0.732769
1479	N	0.626209	0.610876	0.655408
1480	C	0.626248	0.569264	0.708855
1481	C	0.621958	0.530897	0.722584
1482	C	0.618321	0.499758	0.69635
1483	H	0.624655	0.526676	0.751516
1484	H	0.619008	0.473954	0.706924
1485	H	0.647861	0.602914	0.760553
1486	H	0.637946	0.670317	0.665443
1487	C	0.66274	0.560926	0.543144
1488	H	0.641811	0.044103	0.519037
1489	H	0.694249	0.565917	0.537461
1490	H	0.665445	0.592059	0.544392
1491	C	0.919705	0.644955	0.258433
1492	C	0.882872	0.606983	0.246162
1493	N	0.862803	0.575228	0.272033
1494	C	0.87474	0.576096	0.309147
1495	C	0.911616	0.612149	0.322714
1496	C	0.935401	0.644823	0.296106
1497	H	0.961489	0.671318	0.306261
1498	C	0.845322	0.546494	0.335249
1499	C	0.775425	0.989734	0.345112
1500	C	0.775045	0.001458	0.384183
1501	C	0.814653	0.532826	0.39938
1502	N	0.808788	0.513608	0.322008
1503	C	0.850422	0.555284	0.375419
1504	C	0.8888	0.589363	0.389132
1505	C	0.919948	0.616837	0.362897
1506	H	0.892987	0.596321	0.418056
1507	H	0.945725	0.643389	0.373408
1508	H	0.816795	0.543432	0.427088
1509	H	0.749306	0.965989	0.33206
1510	C	0.858767	0.600104	0.209687
1511	H	0.875623	0.59605	0.185576
1512	H	0.853736	0.626599	0.204023
1513	H	0.827655	0.571648	0.210912
1514	C	0.7749	0.773445	0.925062
1515	C	0.8129	0.774613	0.91284
1516	N	0.844642	0.786289	0.938725
1517	C	0.843726	0.797307	0.975845
1518	C	0.807648	0.798075	0.98941
1519	C	0.774991	0.789184	0.962775
1520	H	0.748484	0.788761	0.972922
1521	C	0.87326	0.797421	0.00197907
1522	C	0.930052	0.784322	0.0118621
1523	C	0.918261	0.772119	0.0509041
1524	C	0.886824	0.780258	0.0660871
1525	N	0.906202	0.793844	0.988758
1526	C	0.8644	0.793613	0.0421351
1527	C	0.830297	0.797885	0.0558211
1528	C	0.802917	0.801731	0.0295801
1529	H	0.823263	0.795006	0.0847331
1530	H	0.776276	0.800733	0.0401291
1531	H	0.876224	0.771807	0.0937981
1532	H	0.953844	0.782017	0.998827
1533	C	0.819846	0.757473	0.876342
1534	H	0.823855	0.778396	0.852254
1535	H	0.793402	0.725923	0.870652
1536	H	0.848346	0.754893	0.877549
